Global frequency set at 1000000000 ticks per second
gem5 Simulator System.  http://gem5.org
gem5 is copyrighted software; use the --copyright option for details.

gem5 version 20.1.0.4
gem5 compiled Mar 16 2021 15:26:20
gem5 started Mar 16 2021 22:53:57
gem5 executing on ppetrica-laptop, pid 4224
command line: ./build/X86_MSI/gem5.opt --debug-flags=ProtocolTrace configs/learning_gem5/part3/ruby_test.py

Beginning simulation!
              1   0        Seq               Begin       >       [0x3fec, line 0x3fc0] ST
              2   0    L1Cache               Store      I>IM_AD  [0x3fc0, line 0x3fc0] 
              7   0  Directory                GetM      I>M_m    [0x3fc0, line 0x3fc0] 
             11   1        Seq               Begin       >       [0x46ec, line 0x46c0] ST
             12   1    L1Cache               Store      I>IM_AD  [0x46c0, line 0x46c0] 
             17   0  Directory                GetM      I>M_m    [0x46c0, line 0x46c0] 
             21   1        Seq               Begin       >       [0xdec, line 0xdc0] ST
             22   1    L1Cache               Store      I>IM_AD  [0xdc0, line 0xdc0] 
             27   0  Directory                GetM      I>M_m    [0xdc0, line 0xdc0] 
             31   1        Seq               Begin       >       [0x36e8, line 0x36c0] ST
             32   1    L1Cache               Store      I>IM_AD  [0x36c0, line 0x36c0] 
             37   0  Directory                GetM      I>M_m    [0x36c0, line 0x36c0] 
             41   0        Seq               Begin       >       [0x1be8, line 0x1bc0] ST
             42   0    L1Cache               Store      I>IM_AD  [0x1bc0, line 0x1bc0] 
             47   0  Directory                GetM      I>M_m    [0x1bc0, line 0x1bc0] 
             51   1        Seq               Begin       >       [0x3bec, line 0x3bc0] ST
             52   1    L1Cache               Store      I>IM_AD  [0x3bc0, line 0x3bc0] 
             57   0  Directory                GetM      I>M_m    [0x3bc0, line 0x3bc0] 
             59   0  Directory             MemData    M_m>M      [0x3fc0, line 0x3fc0] 
             61   0        Seq               Begin       >       [0x58ec, line 0x58c0] ST
             62   0    L1Cache               Store      I>IM_AD  [0x58c0, line 0x58c0] 
             64   0        Seq                Done       >       [0x3fec, line 0x3fc0] 0 cycles
             64   0    L1Cache       DataDirNoAcks  IM_AD>M      [0x3fc0, line 0x3fc0] 
             67   0  Directory                GetM      I>M_m    [0x58c0, line 0x58c0] 
             69   0  Directory             MemData    M_m>M      [0x46c0, line 0x46c0] 
             71   0        Seq               Begin       >       [0x424, line 0x400] ST
             72   0    L1Cache               Store      I>IM_AD  [0x400, line 0x400] 
             74   1        Seq                Done       >       [0x46ec, line 0x46c0] 0 cycles
             74   1    L1Cache       DataDirNoAcks  IM_AD>M      [0x46c0, line 0x46c0] 
             77   0  Directory                GetM      I>M_m    [0x400, line 0x400] 
             79   0  Directory             MemData    M_m>M      [0xdc0, line 0xdc0] 
             81   0        Seq               Begin       >       [0x2dec, line 0x2dc0] ST
             82   0    L1Cache               Store      I>IM_AD  [0x2dc0, line 0x2dc0] 
             84   1        Seq                Done       >       [0xdec, line 0xdc0] 0 cycles
             84   1    L1Cache       DataDirNoAcks  IM_AD>M      [0xdc0, line 0xdc0] 
             87   0  Directory                GetM      I>M_m    [0x2dc0, line 0x2dc0] 
             89   0  Directory             MemData    M_m>M      [0x36c0, line 0x36c0] 
             91   1        Seq               Begin       >       [0x428, line 0x400] ST
             92   1    L1Cache               Store      I>IM_AD  [0x400, line 0x400] 
             94   1        Seq                Done       >       [0x36e8, line 0x36c0] 0 cycles
             94   1    L1Cache       DataDirNoAcks  IM_AD>M      [0x36c0, line 0x36c0] 
             97   0  Directory                GetM    M_m>M_m    [0x400, line 0x400] 
             97   0  Directory                GetM    M_m>M_m    [0x400, line 0x400] 
             97   0  Directory                GetM    M_m>M_m    [0x400, line 0x400] 
             97   0  Directory                GetM    M_m>M_m    [0x400, line 0x400] 
             97   0  Directory                GetM    M_m>M_m    [0x400, line 0x400] 
             97   0  Directory                GetM    M_m>M_m    [0x400, line 0x400] 
             97   0  Directory                GetM    M_m>M_m    [0x400, line 0x400] 
             97   0  Directory                GetM    M_m>M_m    [0x400, line 0x400] 
             97   0  Directory                GetM    M_m>M_m    [0x400, line 0x400] 
             97   0  Directory                GetM    M_m>M_m    [0x400, line 0x400] 
             97   0  Directory                GetM    M_m>M_m    [0x400, line 0x400] 
             97   0  Directory                GetM    M_m>M_m    [0x400, line 0x400] 
             97   0  Directory                GetM    M_m>M_m    [0x400, line 0x400] 
             97   0  Directory                GetM    M_m>M_m    [0x400, line 0x400] 
             97   0  Directory                GetM    M_m>M_m    [0x400, line 0x400] 
             97   0  Directory                GetM    M_m>M_m    [0x400, line 0x400] 
             97   0  Directory                GetM    M_m>M_m    [0x400, line 0x400] 
             97   0  Directory                GetM    M_m>M_m    [0x400, line 0x400] 
             97   0  Directory                GetM    M_m>M_m    [0x400, line 0x400] 
             97   0  Directory                GetM    M_m>M_m    [0x400, line 0x400] 
             97   0  Directory                GetM    M_m>M_m    [0x400, line 0x400] 
             97   0  Directory                GetM    M_m>M_m    [0x400, line 0x400] 
             97   0  Directory                GetM    M_m>M_m    [0x400, line 0x400] 
             97   0  Directory                GetM    M_m>M_m    [0x400, line 0x400] 
             97   0  Directory                GetM    M_m>M_m    [0x400, line 0x400] 
             97   0  Directory                GetM    M_m>M_m    [0x400, line 0x400] 
             97   0  Directory                GetM    M_m>M_m    [0x400, line 0x400] 
             97   0  Directory                GetM    M_m>M_m    [0x400, line 0x400] 
             97   0  Directory                GetM    M_m>M_m    [0x400, line 0x400] 
             97   0  Directory                GetM    M_m>M_m    [0x400, line 0x400] 
             97   0  Directory                GetM    M_m>M_m    [0x400, line 0x400] 
             97   0  Directory                GetM    M_m>M_m    [0x400, line 0x400] 
             98   0  Directory                GetM    M_m>M_m    [0x400, line 0x400] 
             98   0  Directory                GetM    M_m>M_m    [0x400, line 0x400] 
             98   0  Directory                GetM    M_m>M_m    [0x400, line 0x400] 
             98   0  Directory                GetM    M_m>M_m    [0x400, line 0x400] 
             98   0  Directory                GetM    M_m>M_m    [0x400, line 0x400] 
             98   0  Directory                GetM    M_m>M_m    [0x400, line 0x400] 
             98   0  Directory                GetM    M_m>M_m    [0x400, line 0x400] 
             98   0  Directory                GetM    M_m>M_m    [0x400, line 0x400] 
             98   0  Directory                GetM    M_m>M_m    [0x400, line 0x400] 
             98   0  Directory                GetM    M_m>M_m    [0x400, line 0x400] 
             98   0  Directory                GetM    M_m>M_m    [0x400, line 0x400] 
             98   0  Directory                GetM    M_m>M_m    [0x400, line 0x400] 
             98   0  Directory                GetM    M_m>M_m    [0x400, line 0x400] 
             98   0  Directory                GetM    M_m>M_m    [0x400, line 0x400] 
             98   0  Directory                GetM    M_m>M_m    [0x400, line 0x400] 
             98   0  Directory                GetM    M_m>M_m    [0x400, line 0x400] 
             98   0  Directory                GetM    M_m>M_m    [0x400, line 0x400] 
             98   0  Directory                GetM    M_m>M_m    [0x400, line 0x400] 
             98   0  Directory                GetM    M_m>M_m    [0x400, line 0x400] 
             98   0  Directory                GetM    M_m>M_m    [0x400, line 0x400] 
             98   0  Directory                GetM    M_m>M_m    [0x400, line 0x400] 
             98   0  Directory                GetM    M_m>M_m    [0x400, line 0x400] 
             98   0  Directory                GetM    M_m>M_m    [0x400, line 0x400] 
             98   0  Directory                GetM    M_m>M_m    [0x400, line 0x400] 
             98   0  Directory                GetM    M_m>M_m    [0x400, line 0x400] 
             98   0  Directory                GetM    M_m>M_m    [0x400, line 0x400] 
             98   0  Directory                GetM    M_m>M_m    [0x400, line 0x400] 
             98   0  Directory                GetM    M_m>M_m    [0x400, line 0x400] 
             98   0  Directory                GetM    M_m>M_m    [0x400, line 0x400] 
             98   0  Directory                GetM    M_m>M_m    [0x400, line 0x400] 
             98   0  Directory                GetM    M_m>M_m    [0x400, line 0x400] 
             98   0  Directory                GetM    M_m>M_m    [0x400, line 0x400] 
             99   0  Directory             MemData    M_m>M      [0x1bc0, line 0x1bc0] 
             99   0  Directory                GetM    M_m>M_m    [0x400, line 0x400] 
             99   0  Directory                GetM    M_m>M_m    [0x400, line 0x400] 
             99   0  Directory                GetM    M_m>M_m    [0x400, line 0x400] 
             99   0  Directory                GetM    M_m>M_m    [0x400, line 0x400] 
             99   0  Directory                GetM    M_m>M_m    [0x400, line 0x400] 
             99   0  Directory                GetM    M_m>M_m    [0x400, line 0x400] 
             99   0  Directory                GetM    M_m>M_m    [0x400, line 0x400] 
             99   0  Directory                GetM    M_m>M_m    [0x400, line 0x400] 
             99   0  Directory                GetM    M_m>M_m    [0x400, line 0x400] 
             99   0  Directory                GetM    M_m>M_m    [0x400, line 0x400] 
             99   0  Directory                GetM    M_m>M_m    [0x400, line 0x400] 
             99   0  Directory                GetM    M_m>M_m    [0x400, line 0x400] 
             99   0  Directory                GetM    M_m>M_m    [0x400, line 0x400] 
             99   0  Directory                GetM    M_m>M_m    [0x400, line 0x400] 
             99   0  Directory                GetM    M_m>M_m    [0x400, line 0x400] 
             99   0  Directory                GetM    M_m>M_m    [0x400, line 0x400] 
             99   0  Directory                GetM    M_m>M_m    [0x400, line 0x400] 
             99   0  Directory                GetM    M_m>M_m    [0x400, line 0x400] 
             99   0  Directory                GetM    M_m>M_m    [0x400, line 0x400] 
             99   0  Directory                GetM    M_m>M_m    [0x400, line 0x400] 
             99   0  Directory                GetM    M_m>M_m    [0x400, line 0x400] 
             99   0  Directory                GetM    M_m>M_m    [0x400, line 0x400] 
             99   0  Directory                GetM    M_m>M_m    [0x400, line 0x400] 
             99   0  Directory                GetM    M_m>M_m    [0x400, line 0x400] 
             99   0  Directory                GetM    M_m>M_m    [0x400, line 0x400] 
             99   0  Directory                GetM    M_m>M_m    [0x400, line 0x400] 
             99   0  Directory                GetM    M_m>M_m    [0x400, line 0x400] 
             99   0  Directory                GetM    M_m>M_m    [0x400, line 0x400] 
             99   0  Directory                GetM    M_m>M_m    [0x400, line 0x400] 
             99   0  Directory                GetM    M_m>M_m    [0x400, line 0x400] 
             99   0  Directory                GetM    M_m>M_m    [0x400, line 0x400] 
            100   0  Directory                GetM    M_m>M_m    [0x400, line 0x400] 
            100   0  Directory                GetM    M_m>M_m    [0x400, line 0x400] 
            100   0  Directory                GetM    M_m>M_m    [0x400, line 0x400] 
            100   0  Directory                GetM    M_m>M_m    [0x400, line 0x400] 
            100   0  Directory                GetM    M_m>M_m    [0x400, line 0x400] 
            100   0  Directory                GetM    M_m>M_m    [0x400, line 0x400] 
            100   0  Directory                GetM    M_m>M_m    [0x400, line 0x400] 
            100   0  Directory                GetM    M_m>M_m    [0x400, line 0x400] 
            100   0  Directory                GetM    M_m>M_m    [0x400, line 0x400] 
            100   0  Directory                GetM    M_m>M_m    [0x400, line 0x400] 
            100   0  Directory                GetM    M_m>M_m    [0x400, line 0x400] 
            100   0  Directory                GetM    M_m>M_m    [0x400, line 0x400] 
            100   0  Directory                GetM    M_m>M_m    [0x400, line 0x400] 
            100   0  Directory                GetM    M_m>M_m    [0x400, line 0x400] 
            100   0  Directory                GetM    M_m>M_m    [0x400, line 0x400] 
            100   0  Directory                GetM    M_m>M_m    [0x400, line 0x400] 
            100   0  Directory                GetM    M_m>M_m    [0x400, line 0x400] 
            100   0  Directory                GetM    M_m>M_m    [0x400, line 0x400] 
            100   0  Directory                GetM    M_m>M_m    [0x400, line 0x400] 
            100   0  Directory                GetM    M_m>M_m    [0x400, line 0x400] 
            100   0  Directory                GetM    M_m>M_m    [0x400, line 0x400] 
            100   0  Directory                GetM    M_m>M_m    [0x400, line 0x400] 
            100   0  Directory                GetM    M_m>M_m    [0x400, line 0x400] 
            100   0  Directory                GetM    M_m>M_m    [0x400, line 0x400] 
            100   0  Directory                GetM    M_m>M_m    [0x400, line 0x400] 
            100   0  Directory                GetM    M_m>M_m    [0x400, line 0x400] 
            100   0  Directory                GetM    M_m>M_m    [0x400, line 0x400] 
            100   0  Directory                GetM    M_m>M_m    [0x400, line 0x400] 
            100   0  Directory                GetM    M_m>M_m    [0x400, line 0x400] 
            100   0  Directory                GetM    M_m>M_m    [0x400, line 0x400] 
            100   0  Directory                GetM    M_m>M_m    [0x400, line 0x400] 
            100   0  Directory                GetM    M_m>M_m    [0x400, line 0x400] 
            101   0  Directory                GetM    M_m>M_m    [0x400, line 0x400] 
            101   0  Directory                GetM    M_m>M_m    [0x400, line 0x400] 
            101   0  Directory                GetM    M_m>M_m    [0x400, line 0x400] 
            101   0  Directory                GetM    M_m>M_m    [0x400, line 0x400] 
            101   0  Directory                GetM    M_m>M_m    [0x400, line 0x400] 
            101   0  Directory                GetM    M_m>M_m    [0x400, line 0x400] 
            101   0  Directory                GetM    M_m>M_m    [0x400, line 0x400] 
            101   0  Directory                GetM    M_m>M_m    [0x400, line 0x400] 
            101   0  Directory                GetM    M_m>M_m    [0x400, line 0x400] 
            101   0  Directory                GetM    M_m>M_m    [0x400, line 0x400] 
            101   0  Directory                GetM    M_m>M_m    [0x400, line 0x400] 
            101   0  Directory                GetM    M_m>M_m    [0x400, line 0x400] 
            101   0  Directory                GetM    M_m>M_m    [0x400, line 0x400] 
            101   0  Directory                GetM    M_m>M_m    [0x400, line 0x400] 
            101   0  Directory                GetM    M_m>M_m    [0x400, line 0x400] 
            101   0  Directory                GetM    M_m>M_m    [0x400, line 0x400] 
            101   0  Directory                GetM    M_m>M_m    [0x400, line 0x400] 
            101   0  Directory                GetM    M_m>M_m    [0x400, line 0x400] 
            101   0  Directory                GetM    M_m>M_m    [0x400, line 0x400] 
            101   0  Directory                GetM    M_m>M_m    [0x400, line 0x400] 
            101   0  Directory                GetM    M_m>M_m    [0x400, line 0x400] 
            101   0  Directory                GetM    M_m>M_m    [0x400, line 0x400] 
            101   0  Directory                GetM    M_m>M_m    [0x400, line 0x400] 
            101   0  Directory                GetM    M_m>M_m    [0x400, line 0x400] 
            101   0  Directory                GetM    M_m>M_m    [0x400, line 0x400] 
            101   0  Directory                GetM    M_m>M_m    [0x400, line 0x400] 
            101   0  Directory                GetM    M_m>M_m    [0x400, line 0x400] 
            101   0  Directory                GetM    M_m>M_m    [0x400, line 0x400] 
            101   0  Directory                GetM    M_m>M_m    [0x400, line 0x400] 
            101   0  Directory                GetM    M_m>M_m    [0x400, line 0x400] 
            101   0  Directory                GetM    M_m>M_m    [0x400, line 0x400] 
            101   0  Directory                GetM    M_m>M_m    [0x400, line 0x400] 
            101   0        Seq               Begin       >       [0x7e8, line 0x7c0] ST
            102   0    L1Cache               Store      I>IM_AD  [0x7c0, line 0x7c0] 
            102   0  Directory                GetM    M_m>M_m    [0x400, line 0x400] 
            102   0  Directory                GetM    M_m>M_m    [0x400, line 0x400] 
            102   0  Directory                GetM    M_m>M_m    [0x400, line 0x400] 
            102   0  Directory                GetM    M_m>M_m    [0x400, line 0x400] 
            102   0  Directory                GetM    M_m>M_m    [0x400, line 0x400] 
            102   0  Directory                GetM    M_m>M_m    [0x400, line 0x400] 
            102   0  Directory                GetM    M_m>M_m    [0x400, line 0x400] 
            102   0  Directory                GetM    M_m>M_m    [0x400, line 0x400] 
            102   0  Directory                GetM    M_m>M_m    [0x400, line 0x400] 
            102   0  Directory                GetM    M_m>M_m    [0x400, line 0x400] 
            102   0  Directory                GetM    M_m>M_m    [0x400, line 0x400] 
            102   0  Directory                GetM    M_m>M_m    [0x400, line 0x400] 
            102   0  Directory                GetM    M_m>M_m    [0x400, line 0x400] 
            102   0  Directory                GetM    M_m>M_m    [0x400, line 0x400] 
            102   0  Directory                GetM    M_m>M_m    [0x400, line 0x400] 
            102   0  Directory                GetM    M_m>M_m    [0x400, line 0x400] 
            102   0  Directory                GetM    M_m>M_m    [0x400, line 0x400] 
            102   0  Directory                GetM    M_m>M_m    [0x400, line 0x400] 
            102   0  Directory                GetM    M_m>M_m    [0x400, line 0x400] 
            102   0  Directory                GetM    M_m>M_m    [0x400, line 0x400] 
            102   0  Directory                GetM    M_m>M_m    [0x400, line 0x400] 
            102   0  Directory                GetM    M_m>M_m    [0x400, line 0x400] 
            102   0  Directory                GetM    M_m>M_m    [0x400, line 0x400] 
            102   0  Directory                GetM    M_m>M_m    [0x400, line 0x400] 
            102   0  Directory                GetM    M_m>M_m    [0x400, line 0x400] 
            102   0  Directory                GetM    M_m>M_m    [0x400, line 0x400] 
            102   0  Directory                GetM    M_m>M_m    [0x400, line 0x400] 
            102   0  Directory                GetM    M_m>M_m    [0x400, line 0x400] 
            102   0  Directory                GetM    M_m>M_m    [0x400, line 0x400] 
            102   0  Directory                GetM    M_m>M_m    [0x400, line 0x400] 
            102   0  Directory                GetM    M_m>M_m    [0x400, line 0x400] 
            102   0  Directory                GetM    M_m>M_m    [0x400, line 0x400] 
            103   0  Directory                GetM    M_m>M_m    [0x400, line 0x400] 
            103   0  Directory                GetM    M_m>M_m    [0x400, line 0x400] 
            103   0  Directory                GetM    M_m>M_m    [0x400, line 0x400] 
            103   0  Directory                GetM    M_m>M_m    [0x400, line 0x400] 
            103   0  Directory                GetM    M_m>M_m    [0x400, line 0x400] 
            103   0  Directory                GetM    M_m>M_m    [0x400, line 0x400] 
            103   0  Directory                GetM    M_m>M_m    [0x400, line 0x400] 
            103   0  Directory                GetM    M_m>M_m    [0x400, line 0x400] 
            103   0  Directory                GetM    M_m>M_m    [0x400, line 0x400] 
            103   0  Directory                GetM    M_m>M_m    [0x400, line 0x400] 
            103   0  Directory                GetM    M_m>M_m    [0x400, line 0x400] 
            103   0  Directory                GetM    M_m>M_m    [0x400, line 0x400] 
            103   0  Directory                GetM    M_m>M_m    [0x400, line 0x400] 
            103   0  Directory                GetM    M_m>M_m    [0x400, line 0x400] 
            103   0  Directory                GetM    M_m>M_m    [0x400, line 0x400] 
            103   0  Directory                GetM    M_m>M_m    [0x400, line 0x400] 
            103   0  Directory                GetM    M_m>M_m    [0x400, line 0x400] 
            103   0  Directory                GetM    M_m>M_m    [0x400, line 0x400] 
            103   0  Directory                GetM    M_m>M_m    [0x400, line 0x400] 
            103   0  Directory                GetM    M_m>M_m    [0x400, line 0x400] 
            103   0  Directory                GetM    M_m>M_m    [0x400, line 0x400] 
            103   0  Directory                GetM    M_m>M_m    [0x400, line 0x400] 
            103   0  Directory                GetM    M_m>M_m    [0x400, line 0x400] 
            103   0  Directory                GetM    M_m>M_m    [0x400, line 0x400] 
            103   0  Directory                GetM    M_m>M_m    [0x400, line 0x400] 
            103   0  Directory                GetM    M_m>M_m    [0x400, line 0x400] 
            103   0  Directory                GetM    M_m>M_m    [0x400, line 0x400] 
            103   0  Directory                GetM    M_m>M_m    [0x400, line 0x400] 
            103   0  Directory                GetM    M_m>M_m    [0x400, line 0x400] 
            103   0  Directory                GetM    M_m>M_m    [0x400, line 0x400] 
            103   0  Directory                GetM    M_m>M_m    [0x400, line 0x400] 
            103   0  Directory                GetM    M_m>M_m    [0x400, line 0x400] 
            104   0  Directory                GetM    M_m>M_m    [0x400, line 0x400] 
            104   0  Directory                GetM    M_m>M_m    [0x400, line 0x400] 
            104   0  Directory                GetM    M_m>M_m    [0x400, line 0x400] 
            104   0  Directory                GetM    M_m>M_m    [0x400, line 0x400] 
            104   0  Directory                GetM    M_m>M_m    [0x400, line 0x400] 
            104   0  Directory                GetM    M_m>M_m    [0x400, line 0x400] 
            104   0  Directory                GetM    M_m>M_m    [0x400, line 0x400] 
            104   0  Directory                GetM    M_m>M_m    [0x400, line 0x400] 
            104   0  Directory                GetM    M_m>M_m    [0x400, line 0x400] 
            104   0  Directory                GetM    M_m>M_m    [0x400, line 0x400] 
            104   0  Directory                GetM    M_m>M_m    [0x400, line 0x400] 
            104   0  Directory                GetM    M_m>M_m    [0x400, line 0x400] 
            104   0  Directory                GetM    M_m>M_m    [0x400, line 0x400] 
            104   0  Directory                GetM    M_m>M_m    [0x400, line 0x400] 
            104   0  Directory                GetM    M_m>M_m    [0x400, line 0x400] 
            104   0  Directory                GetM    M_m>M_m    [0x400, line 0x400] 
            104   0  Directory                GetM    M_m>M_m    [0x400, line 0x400] 
            104   0  Directory                GetM    M_m>M_m    [0x400, line 0x400] 
            104   0  Directory                GetM    M_m>M_m    [0x400, line 0x400] 
            104   0  Directory                GetM    M_m>M_m    [0x400, line 0x400] 
            104   0  Directory                GetM    M_m>M_m    [0x400, line 0x400] 
            104   0  Directory                GetM    M_m>M_m    [0x400, line 0x400] 
            104   0  Directory                GetM    M_m>M_m    [0x400, line 0x400] 
            104   0  Directory                GetM    M_m>M_m    [0x400, line 0x400] 
            104   0  Directory                GetM    M_m>M_m    [0x400, line 0x400] 
            104   0  Directory                GetM    M_m>M_m    [0x400, line 0x400] 
            104   0  Directory                GetM    M_m>M_m    [0x400, line 0x400] 
            104   0  Directory                GetM    M_m>M_m    [0x400, line 0x400] 
            104   0  Directory                GetM    M_m>M_m    [0x400, line 0x400] 
            104   0  Directory                GetM    M_m>M_m    [0x400, line 0x400] 
            104   0  Directory                GetM    M_m>M_m    [0x400, line 0x400] 
            104   0  Directory                GetM    M_m>M_m    [0x400, line 0x400] 
            104   0        Seq                Done       >       [0x1be8, line 0x1bc0] 0 cycles
            104   0    L1Cache       DataDirNoAcks  IM_AD>M      [0x1bc0, line 0x1bc0] 
            105   0  Directory                GetM    M_m>M_m    [0x400, line 0x400] 
            105   0  Directory                GetM    M_m>M_m    [0x400, line 0x400] 
            105   0  Directory                GetM    M_m>M_m    [0x400, line 0x400] 
            105   0  Directory                GetM    M_m>M_m    [0x400, line 0x400] 
            105   0  Directory                GetM    M_m>M_m    [0x400, line 0x400] 
            105   0  Directory                GetM    M_m>M_m    [0x400, line 0x400] 
            105   0  Directory                GetM    M_m>M_m    [0x400, line 0x400] 
            105   0  Directory                GetM    M_m>M_m    [0x400, line 0x400] 
            105   0  Directory                GetM    M_m>M_m    [0x400, line 0x400] 
            105   0  Directory                GetM    M_m>M_m    [0x400, line 0x400] 
            105   0  Directory                GetM    M_m>M_m    [0x400, line 0x400] 
            105   0  Directory                GetM    M_m>M_m    [0x400, line 0x400] 
            105   0  Directory                GetM    M_m>M_m    [0x400, line 0x400] 
            105   0  Directory                GetM    M_m>M_m    [0x400, line 0x400] 
            105   0  Directory                GetM    M_m>M_m    [0x400, line 0x400] 
            105   0  Directory                GetM    M_m>M_m    [0x400, line 0x400] 
            105   0  Directory                GetM    M_m>M_m    [0x400, line 0x400] 
            105   0  Directory                GetM    M_m>M_m    [0x400, line 0x400] 
            105   0  Directory                GetM    M_m>M_m    [0x400, line 0x400] 
            105   0  Directory                GetM    M_m>M_m    [0x400, line 0x400] 
            105   0  Directory                GetM    M_m>M_m    [0x400, line 0x400] 
            105   0  Directory                GetM    M_m>M_m    [0x400, line 0x400] 
            105   0  Directory                GetM    M_m>M_m    [0x400, line 0x400] 
            105   0  Directory                GetM    M_m>M_m    [0x400, line 0x400] 
            105   0  Directory                GetM    M_m>M_m    [0x400, line 0x400] 
            105   0  Directory                GetM    M_m>M_m    [0x400, line 0x400] 
            105   0  Directory                GetM    M_m>M_m    [0x400, line 0x400] 
            105   0  Directory                GetM    M_m>M_m    [0x400, line 0x400] 
            105   0  Directory                GetM    M_m>M_m    [0x400, line 0x400] 
            105   0  Directory                GetM    M_m>M_m    [0x400, line 0x400] 
            105   0  Directory                GetM    M_m>M_m    [0x400, line 0x400] 
            105   0  Directory                GetM    M_m>M_m    [0x400, line 0x400] 
            106   0  Directory                GetM    M_m>M_m    [0x400, line 0x400] 
            106   0  Directory                GetM    M_m>M_m    [0x400, line 0x400] 
            106   0  Directory                GetM    M_m>M_m    [0x400, line 0x400] 
            106   0  Directory                GetM    M_m>M_m    [0x400, line 0x400] 
            106   0  Directory                GetM    M_m>M_m    [0x400, line 0x400] 
            106   0  Directory                GetM    M_m>M_m    [0x400, line 0x400] 
            106   0  Directory                GetM    M_m>M_m    [0x400, line 0x400] 
            106   0  Directory                GetM    M_m>M_m    [0x400, line 0x400] 
            106   0  Directory                GetM    M_m>M_m    [0x400, line 0x400] 
            106   0  Directory                GetM    M_m>M_m    [0x400, line 0x400] 
            106   0  Directory                GetM    M_m>M_m    [0x400, line 0x400] 
            106   0  Directory                GetM    M_m>M_m    [0x400, line 0x400] 
            106   0  Directory                GetM    M_m>M_m    [0x400, line 0x400] 
            106   0  Directory                GetM    M_m>M_m    [0x400, line 0x400] 
            106   0  Directory                GetM    M_m>M_m    [0x400, line 0x400] 
            106   0  Directory                GetM    M_m>M_m    [0x400, line 0x400] 
            106   0  Directory                GetM    M_m>M_m    [0x400, line 0x400] 
            106   0  Directory                GetM    M_m>M_m    [0x400, line 0x400] 
            106   0  Directory                GetM    M_m>M_m    [0x400, line 0x400] 
            106   0  Directory                GetM    M_m>M_m    [0x400, line 0x400] 
            106   0  Directory                GetM    M_m>M_m    [0x400, line 0x400] 
            106   0  Directory                GetM    M_m>M_m    [0x400, line 0x400] 
            106   0  Directory                GetM    M_m>M_m    [0x400, line 0x400] 
            106   0  Directory                GetM    M_m>M_m    [0x400, line 0x400] 
            106   0  Directory                GetM    M_m>M_m    [0x400, line 0x400] 
            106   0  Directory                GetM    M_m>M_m    [0x400, line 0x400] 
            106   0  Directory                GetM    M_m>M_m    [0x400, line 0x400] 
            106   0  Directory                GetM    M_m>M_m    [0x400, line 0x400] 
            106   0  Directory                GetM    M_m>M_m    [0x400, line 0x400] 
            106   0  Directory                GetM    M_m>M_m    [0x400, line 0x400] 
            106   0  Directory                GetM    M_m>M_m    [0x400, line 0x400] 
            106   0  Directory                GetM    M_m>M_m    [0x400, line 0x400] 
            107   0  Directory                GetM    M_m>M_m    [0x400, line 0x400] 
            107   0  Directory                GetM    M_m>M_m    [0x400, line 0x400] 
            107   0  Directory                GetM    M_m>M_m    [0x400, line 0x400] 
            107   0  Directory                GetM    M_m>M_m    [0x400, line 0x400] 
            107   0  Directory                GetM    M_m>M_m    [0x400, line 0x400] 
            107   0  Directory                GetM    M_m>M_m    [0x400, line 0x400] 
            107   0  Directory                GetM    M_m>M_m    [0x400, line 0x400] 
            107   0  Directory                GetM    M_m>M_m    [0x400, line 0x400] 
            107   0  Directory                GetM    M_m>M_m    [0x400, line 0x400] 
            107   0  Directory                GetM    M_m>M_m    [0x400, line 0x400] 
            107   0  Directory                GetM    M_m>M_m    [0x400, line 0x400] 
            107   0  Directory                GetM    M_m>M_m    [0x400, line 0x400] 
            107   0  Directory                GetM    M_m>M_m    [0x400, line 0x400] 
            107   0  Directory                GetM    M_m>M_m    [0x400, line 0x400] 
            107   0  Directory                GetM    M_m>M_m    [0x400, line 0x400] 
            107   0  Directory                GetM    M_m>M_m    [0x400, line 0x400] 
            107   0  Directory                GetM    M_m>M_m    [0x400, line 0x400] 
            107   0  Directory                GetM    M_m>M_m    [0x400, line 0x400] 
            107   0  Directory                GetM    M_m>M_m    [0x400, line 0x400] 
            107   0  Directory                GetM    M_m>M_m    [0x400, line 0x400] 
            107   0  Directory                GetM    M_m>M_m    [0x400, line 0x400] 
            107   0  Directory                GetM    M_m>M_m    [0x400, line 0x400] 
            107   0  Directory                GetM    M_m>M_m    [0x400, line 0x400] 
            107   0  Directory                GetM    M_m>M_m    [0x400, line 0x400] 
            107   0  Directory                GetM    M_m>M_m    [0x400, line 0x400] 
            107   0  Directory                GetM    M_m>M_m    [0x400, line 0x400] 
            107   0  Directory                GetM    M_m>M_m    [0x400, line 0x400] 
            107   0  Directory                GetM    M_m>M_m    [0x400, line 0x400] 
            107   0  Directory                GetM    M_m>M_m    [0x400, line 0x400] 
            107   0  Directory                GetM    M_m>M_m    [0x400, line 0x400] 
            107   0  Directory                GetM    M_m>M_m    [0x400, line 0x400] 
            107   0  Directory                GetM    M_m>M_m    [0x400, line 0x400] 
            108   0  Directory                GetM    M_m>M_m    [0x400, line 0x400] 
            108   0  Directory                GetM    M_m>M_m    [0x400, line 0x400] 
            108   0  Directory                GetM    M_m>M_m    [0x400, line 0x400] 
            108   0  Directory                GetM    M_m>M_m    [0x400, line 0x400] 
            108   0  Directory                GetM    M_m>M_m    [0x400, line 0x400] 
            108   0  Directory                GetM    M_m>M_m    [0x400, line 0x400] 
            108   0  Directory                GetM    M_m>M_m    [0x400, line 0x400] 
            108   0  Directory                GetM    M_m>M_m    [0x400, line 0x400] 
            108   0  Directory                GetM    M_m>M_m    [0x400, line 0x400] 
            108   0  Directory                GetM    M_m>M_m    [0x400, line 0x400] 
            108   0  Directory                GetM    M_m>M_m    [0x400, line 0x400] 
            108   0  Directory                GetM    M_m>M_m    [0x400, line 0x400] 
            108   0  Directory                GetM    M_m>M_m    [0x400, line 0x400] 
            108   0  Directory                GetM    M_m>M_m    [0x400, line 0x400] 
            108   0  Directory                GetM    M_m>M_m    [0x400, line 0x400] 
            108   0  Directory                GetM    M_m>M_m    [0x400, line 0x400] 
            108   0  Directory                GetM    M_m>M_m    [0x400, line 0x400] 
            108   0  Directory                GetM    M_m>M_m    [0x400, line 0x400] 
            108   0  Directory                GetM    M_m>M_m    [0x400, line 0x400] 
            108   0  Directory                GetM    M_m>M_m    [0x400, line 0x400] 
            108   0  Directory                GetM    M_m>M_m    [0x400, line 0x400] 
            108   0  Directory                GetM    M_m>M_m    [0x400, line 0x400] 
            108   0  Directory                GetM    M_m>M_m    [0x400, line 0x400] 
            108   0  Directory                GetM    M_m>M_m    [0x400, line 0x400] 
            108   0  Directory                GetM    M_m>M_m    [0x400, line 0x400] 
            108   0  Directory                GetM    M_m>M_m    [0x400, line 0x400] 
            108   0  Directory                GetM    M_m>M_m    [0x400, line 0x400] 
            108   0  Directory                GetM    M_m>M_m    [0x400, line 0x400] 
            108   0  Directory                GetM    M_m>M_m    [0x400, line 0x400] 
            108   0  Directory                GetM    M_m>M_m    [0x400, line 0x400] 
            108   0  Directory                GetM    M_m>M_m    [0x400, line 0x400] 
            108   0  Directory                GetM    M_m>M_m    [0x400, line 0x400] 
            109   0  Directory             MemData    M_m>M      [0x3bc0, line 0x3bc0] 
            109   0  Directory                GetM    M_m>M_m    [0x400, line 0x400] 
            109   0  Directory                GetM    M_m>M_m    [0x400, line 0x400] 
            109   0  Directory                GetM    M_m>M_m    [0x400, line 0x400] 
            109   0  Directory                GetM    M_m>M_m    [0x400, line 0x400] 
            109   0  Directory                GetM    M_m>M_m    [0x400, line 0x400] 
            109   0  Directory                GetM    M_m>M_m    [0x400, line 0x400] 
            109   0  Directory                GetM    M_m>M_m    [0x400, line 0x400] 
            109   0  Directory                GetM    M_m>M_m    [0x400, line 0x400] 
            109   0  Directory                GetM    M_m>M_m    [0x400, line 0x400] 
            109   0  Directory                GetM    M_m>M_m    [0x400, line 0x400] 
            109   0  Directory                GetM    M_m>M_m    [0x400, line 0x400] 
            109   0  Directory                GetM    M_m>M_m    [0x400, line 0x400] 
            109   0  Directory                GetM    M_m>M_m    [0x400, line 0x400] 
            109   0  Directory                GetM    M_m>M_m    [0x400, line 0x400] 
            109   0  Directory                GetM    M_m>M_m    [0x400, line 0x400] 
            109   0  Directory                GetM    M_m>M_m    [0x400, line 0x400] 
            109   0  Directory                GetM    M_m>M_m    [0x400, line 0x400] 
            109   0  Directory                GetM    M_m>M_m    [0x400, line 0x400] 
            109   0  Directory                GetM    M_m>M_m    [0x400, line 0x400] 
            109   0  Directory                GetM    M_m>M_m    [0x400, line 0x400] 
            109   0  Directory                GetM    M_m>M_m    [0x400, line 0x400] 
            109   0  Directory                GetM    M_m>M_m    [0x400, line 0x400] 
            109   0  Directory                GetM    M_m>M_m    [0x400, line 0x400] 
            109   0  Directory                GetM    M_m>M_m    [0x400, line 0x400] 
            109   0  Directory                GetM    M_m>M_m    [0x400, line 0x400] 
            109   0  Directory                GetM    M_m>M_m    [0x400, line 0x400] 
            109   0  Directory                GetM    M_m>M_m    [0x400, line 0x400] 
            109   0  Directory                GetM    M_m>M_m    [0x400, line 0x400] 
            109   0  Directory                GetM    M_m>M_m    [0x400, line 0x400] 
            109   0  Directory                GetM    M_m>M_m    [0x400, line 0x400] 
            109   0  Directory                GetM    M_m>M_m    [0x400, line 0x400] 
            110   0  Directory                GetM    M_m>M_m    [0x400, line 0x400] 
            110   0  Directory                GetM    M_m>M_m    [0x400, line 0x400] 
            110   0  Directory                GetM    M_m>M_m    [0x400, line 0x400] 
            110   0  Directory                GetM    M_m>M_m    [0x400, line 0x400] 
            110   0  Directory                GetM    M_m>M_m    [0x400, line 0x400] 
            110   0  Directory                GetM    M_m>M_m    [0x400, line 0x400] 
            110   0  Directory                GetM    M_m>M_m    [0x400, line 0x400] 
            110   0  Directory                GetM    M_m>M_m    [0x400, line 0x400] 
            110   0  Directory                GetM    M_m>M_m    [0x400, line 0x400] 
            110   0  Directory                GetM    M_m>M_m    [0x400, line 0x400] 
            110   0  Directory                GetM    M_m>M_m    [0x400, line 0x400] 
            110   0  Directory                GetM    M_m>M_m    [0x400, line 0x400] 
            110   0  Directory                GetM    M_m>M_m    [0x400, line 0x400] 
            110   0  Directory                GetM    M_m>M_m    [0x400, line 0x400] 
            110   0  Directory                GetM    M_m>M_m    [0x400, line 0x400] 
            110   0  Directory                GetM    M_m>M_m    [0x400, line 0x400] 
            110   0  Directory                GetM    M_m>M_m    [0x400, line 0x400] 
            110   0  Directory                GetM    M_m>M_m    [0x400, line 0x400] 
            110   0  Directory                GetM    M_m>M_m    [0x400, line 0x400] 
            110   0  Directory                GetM    M_m>M_m    [0x400, line 0x400] 
            110   0  Directory                GetM    M_m>M_m    [0x400, line 0x400] 
            110   0  Directory                GetM    M_m>M_m    [0x400, line 0x400] 
            110   0  Directory                GetM    M_m>M_m    [0x400, line 0x400] 
            110   0  Directory                GetM    M_m>M_m    [0x400, line 0x400] 
            110   0  Directory                GetM    M_m>M_m    [0x400, line 0x400] 
            110   0  Directory                GetM    M_m>M_m    [0x400, line 0x400] 
            110   0  Directory                GetM    M_m>M_m    [0x400, line 0x400] 
            110   0  Directory                GetM    M_m>M_m    [0x400, line 0x400] 
            110   0  Directory                GetM    M_m>M_m    [0x400, line 0x400] 
            110   0  Directory                GetM    M_m>M_m    [0x400, line 0x400] 
            110   0  Directory                GetM    M_m>M_m    [0x400, line 0x400] 
            110   0  Directory                GetM    M_m>M_m    [0x400, line 0x400] 
            111   0  Directory                GetM    M_m>M_m    [0x400, line 0x400] 
            111   0  Directory                GetM    M_m>M_m    [0x400, line 0x400] 
            111   0  Directory                GetM    M_m>M_m    [0x400, line 0x400] 
            111   0  Directory                GetM    M_m>M_m    [0x400, line 0x400] 
            111   0  Directory                GetM    M_m>M_m    [0x400, line 0x400] 
            111   0  Directory                GetM    M_m>M_m    [0x400, line 0x400] 
            111   0  Directory                GetM    M_m>M_m    [0x400, line 0x400] 
            111   0  Directory                GetM    M_m>M_m    [0x400, line 0x400] 
            111   0  Directory                GetM    M_m>M_m    [0x400, line 0x400] 
            111   0  Directory                GetM    M_m>M_m    [0x400, line 0x400] 
            111   0  Directory                GetM    M_m>M_m    [0x400, line 0x400] 
            111   0  Directory                GetM    M_m>M_m    [0x400, line 0x400] 
            111   0  Directory                GetM    M_m>M_m    [0x400, line 0x400] 
            111   0  Directory                GetM    M_m>M_m    [0x400, line 0x400] 
            111   0  Directory                GetM    M_m>M_m    [0x400, line 0x400] 
            111   0  Directory                GetM    M_m>M_m    [0x400, line 0x400] 
            111   0  Directory                GetM    M_m>M_m    [0x400, line 0x400] 
            111   0  Directory                GetM    M_m>M_m    [0x400, line 0x400] 
            111   0  Directory                GetM    M_m>M_m    [0x400, line 0x400] 
            111   0  Directory                GetM    M_m>M_m    [0x400, line 0x400] 
            111   0  Directory                GetM    M_m>M_m    [0x400, line 0x400] 
            111   0  Directory                GetM    M_m>M_m    [0x400, line 0x400] 
            111   0  Directory                GetM    M_m>M_m    [0x400, line 0x400] 
            111   0  Directory                GetM    M_m>M_m    [0x400, line 0x400] 
            111   0  Directory                GetM    M_m>M_m    [0x400, line 0x400] 
            111   0  Directory                GetM    M_m>M_m    [0x400, line 0x400] 
            111   0  Directory                GetM    M_m>M_m    [0x400, line 0x400] 
            111   0  Directory                GetM    M_m>M_m    [0x400, line 0x400] 
            111   0  Directory                GetM    M_m>M_m    [0x400, line 0x400] 
            111   0  Directory                GetM    M_m>M_m    [0x400, line 0x400] 
            111   0  Directory                GetM    M_m>M_m    [0x400, line 0x400] 
            111   0  Directory                GetM    M_m>M_m    [0x400, line 0x400] 
            111   1        Seq               Begin       >       [0xae8, line 0xac0] ST
            112   1    L1Cache               Store      I>IM_AD  [0xac0, line 0xac0] 
            112   0  Directory                GetM    M_m>M_m    [0x400, line 0x400] 
            112   0  Directory                GetM    M_m>M_m    [0x400, line 0x400] 
            112   0  Directory                GetM    M_m>M_m    [0x400, line 0x400] 
            112   0  Directory                GetM    M_m>M_m    [0x400, line 0x400] 
            112   0  Directory                GetM    M_m>M_m    [0x400, line 0x400] 
            112   0  Directory                GetM    M_m>M_m    [0x400, line 0x400] 
            112   0  Directory                GetM    M_m>M_m    [0x400, line 0x400] 
            112   0  Directory                GetM    M_m>M_m    [0x400, line 0x400] 
            112   0  Directory                GetM    M_m>M_m    [0x400, line 0x400] 
            112   0  Directory                GetM    M_m>M_m    [0x400, line 0x400] 
            112   0  Directory                GetM    M_m>M_m    [0x400, line 0x400] 
            112   0  Directory                GetM    M_m>M_m    [0x400, line 0x400] 
            112   0  Directory                GetM    M_m>M_m    [0x400, line 0x400] 
            112   0  Directory                GetM    M_m>M_m    [0x400, line 0x400] 
            112   0  Directory                GetM    M_m>M_m    [0x400, line 0x400] 
            112   0  Directory                GetM    M_m>M_m    [0x400, line 0x400] 
            112   0  Directory                GetM    M_m>M_m    [0x400, line 0x400] 
            112   0  Directory                GetM    M_m>M_m    [0x400, line 0x400] 
            112   0  Directory                GetM    M_m>M_m    [0x400, line 0x400] 
            112   0  Directory                GetM    M_m>M_m    [0x400, line 0x400] 
            112   0  Directory                GetM    M_m>M_m    [0x400, line 0x400] 
            112   0  Directory                GetM    M_m>M_m    [0x400, line 0x400] 
            112   0  Directory                GetM    M_m>M_m    [0x400, line 0x400] 
            112   0  Directory                GetM    M_m>M_m    [0x400, line 0x400] 
            112   0  Directory                GetM    M_m>M_m    [0x400, line 0x400] 
            112   0  Directory                GetM    M_m>M_m    [0x400, line 0x400] 
            112   0  Directory                GetM    M_m>M_m    [0x400, line 0x400] 
            112   0  Directory                GetM    M_m>M_m    [0x400, line 0x400] 
            112   0  Directory                GetM    M_m>M_m    [0x400, line 0x400] 
            112   0  Directory                GetM    M_m>M_m    [0x400, line 0x400] 
            112   0  Directory                GetM    M_m>M_m    [0x400, line 0x400] 
            112   0  Directory                GetM    M_m>M_m    [0x400, line 0x400] 
            113   0  Directory                GetM    M_m>M_m    [0x400, line 0x400] 
            113   0  Directory                GetM    M_m>M_m    [0x400, line 0x400] 
            113   0  Directory                GetM    M_m>M_m    [0x400, line 0x400] 
            113   0  Directory                GetM    M_m>M_m    [0x400, line 0x400] 
            113   0  Directory                GetM    M_m>M_m    [0x400, line 0x400] 
            113   0  Directory                GetM    M_m>M_m    [0x400, line 0x400] 
            113   0  Directory                GetM    M_m>M_m    [0x400, line 0x400] 
            113   0  Directory                GetM    M_m>M_m    [0x400, line 0x400] 
            113   0  Directory                GetM    M_m>M_m    [0x400, line 0x400] 
            113   0  Directory                GetM    M_m>M_m    [0x400, line 0x400] 
            113   0  Directory                GetM    M_m>M_m    [0x400, line 0x400] 
            113   0  Directory                GetM    M_m>M_m    [0x400, line 0x400] 
            113   0  Directory                GetM    M_m>M_m    [0x400, line 0x400] 
            113   0  Directory                GetM    M_m>M_m    [0x400, line 0x400] 
            113   0  Directory                GetM    M_m>M_m    [0x400, line 0x400] 
            113   0  Directory                GetM    M_m>M_m    [0x400, line 0x400] 
            113   0  Directory                GetM    M_m>M_m    [0x400, line 0x400] 
            113   0  Directory                GetM    M_m>M_m    [0x400, line 0x400] 
            113   0  Directory                GetM    M_m>M_m    [0x400, line 0x400] 
            113   0  Directory                GetM    M_m>M_m    [0x400, line 0x400] 
            113   0  Directory                GetM    M_m>M_m    [0x400, line 0x400] 
            113   0  Directory                GetM    M_m>M_m    [0x400, line 0x400] 
            113   0  Directory                GetM    M_m>M_m    [0x400, line 0x400] 
            113   0  Directory                GetM    M_m>M_m    [0x400, line 0x400] 
            113   0  Directory                GetM    M_m>M_m    [0x400, line 0x400] 
            113   0  Directory                GetM    M_m>M_m    [0x400, line 0x400] 
            113   0  Directory                GetM    M_m>M_m    [0x400, line 0x400] 
            113   0  Directory                GetM    M_m>M_m    [0x400, line 0x400] 
            113   0  Directory                GetM    M_m>M_m    [0x400, line 0x400] 
            113   0  Directory                GetM    M_m>M_m    [0x400, line 0x400] 
            113   0  Directory                GetM    M_m>M_m    [0x400, line 0x400] 
            113   0  Directory                GetM    M_m>M_m    [0x400, line 0x400] 
            114   0  Directory                GetM    M_m>M_m    [0x400, line 0x400] 
            114   0  Directory                GetM    M_m>M_m    [0x400, line 0x400] 
            114   0  Directory                GetM    M_m>M_m    [0x400, line 0x400] 
            114   0  Directory                GetM    M_m>M_m    [0x400, line 0x400] 
            114   0  Directory                GetM    M_m>M_m    [0x400, line 0x400] 
            114   0  Directory                GetM    M_m>M_m    [0x400, line 0x400] 
            114   0  Directory                GetM    M_m>M_m    [0x400, line 0x400] 
            114   0  Directory                GetM    M_m>M_m    [0x400, line 0x400] 
            114   0  Directory                GetM    M_m>M_m    [0x400, line 0x400] 
            114   0  Directory                GetM    M_m>M_m    [0x400, line 0x400] 
            114   0  Directory                GetM    M_m>M_m    [0x400, line 0x400] 
            114   0  Directory                GetM    M_m>M_m    [0x400, line 0x400] 
            114   0  Directory                GetM    M_m>M_m    [0x400, line 0x400] 
            114   0  Directory                GetM    M_m>M_m    [0x400, line 0x400] 
            114   0  Directory                GetM    M_m>M_m    [0x400, line 0x400] 
            114   0  Directory                GetM    M_m>M_m    [0x400, line 0x400] 
            114   0  Directory                GetM    M_m>M_m    [0x400, line 0x400] 
            114   0  Directory                GetM    M_m>M_m    [0x400, line 0x400] 
            114   0  Directory                GetM    M_m>M_m    [0x400, line 0x400] 
            114   0  Directory                GetM    M_m>M_m    [0x400, line 0x400] 
            114   0  Directory                GetM    M_m>M_m    [0x400, line 0x400] 
            114   0  Directory                GetM    M_m>M_m    [0x400, line 0x400] 
            114   0  Directory                GetM    M_m>M_m    [0x400, line 0x400] 
            114   0  Directory                GetM    M_m>M_m    [0x400, line 0x400] 
            114   0  Directory                GetM    M_m>M_m    [0x400, line 0x400] 
            114   0  Directory                GetM    M_m>M_m    [0x400, line 0x400] 
            114   0  Directory                GetM    M_m>M_m    [0x400, line 0x400] 
            114   0  Directory                GetM    M_m>M_m    [0x400, line 0x400] 
            114   0  Directory                GetM    M_m>M_m    [0x400, line 0x400] 
            114   0  Directory                GetM    M_m>M_m    [0x400, line 0x400] 
            114   0  Directory                GetM    M_m>M_m    [0x400, line 0x400] 
            114   0  Directory                GetM    M_m>M_m    [0x400, line 0x400] 
            114   1        Seq                Done       >       [0x3bec, line 0x3bc0] 0 cycles
            114   1    L1Cache       DataDirNoAcks  IM_AD>M      [0x3bc0, line 0x3bc0] 
            115   0  Directory                GetM    M_m>M_m    [0x400, line 0x400] 
            115   0  Directory                GetM    M_m>M_m    [0x400, line 0x400] 
            115   0  Directory                GetM    M_m>M_m    [0x400, line 0x400] 
            115   0  Directory                GetM    M_m>M_m    [0x400, line 0x400] 
            115   0  Directory                GetM    M_m>M_m    [0x400, line 0x400] 
            115   0  Directory                GetM    M_m>M_m    [0x400, line 0x400] 
            115   0  Directory                GetM    M_m>M_m    [0x400, line 0x400] 
            115   0  Directory                GetM    M_m>M_m    [0x400, line 0x400] 
            115   0  Directory                GetM    M_m>M_m    [0x400, line 0x400] 
            115   0  Directory                GetM    M_m>M_m    [0x400, line 0x400] 
            115   0  Directory                GetM    M_m>M_m    [0x400, line 0x400] 
            115   0  Directory                GetM    M_m>M_m    [0x400, line 0x400] 
            115   0  Directory                GetM    M_m>M_m    [0x400, line 0x400] 
            115   0  Directory                GetM    M_m>M_m    [0x400, line 0x400] 
            115   0  Directory                GetM    M_m>M_m    [0x400, line 0x400] 
            115   0  Directory                GetM    M_m>M_m    [0x400, line 0x400] 
            115   0  Directory                GetM    M_m>M_m    [0x400, line 0x400] 
            115   0  Directory                GetM    M_m>M_m    [0x400, line 0x400] 
            115   0  Directory                GetM    M_m>M_m    [0x400, line 0x400] 
            115   0  Directory                GetM    M_m>M_m    [0x400, line 0x400] 
            115   0  Directory                GetM    M_m>M_m    [0x400, line 0x400] 
            115   0  Directory                GetM    M_m>M_m    [0x400, line 0x400] 
            115   0  Directory                GetM    M_m>M_m    [0x400, line 0x400] 
            115   0  Directory                GetM    M_m>M_m    [0x400, line 0x400] 
            115   0  Directory                GetM    M_m>M_m    [0x400, line 0x400] 
            115   0  Directory                GetM    M_m>M_m    [0x400, line 0x400] 
            115   0  Directory                GetM    M_m>M_m    [0x400, line 0x400] 
            115   0  Directory                GetM    M_m>M_m    [0x400, line 0x400] 
            115   0  Directory                GetM    M_m>M_m    [0x400, line 0x400] 
            115   0  Directory                GetM    M_m>M_m    [0x400, line 0x400] 
            115   0  Directory                GetM    M_m>M_m    [0x400, line 0x400] 
            115   0  Directory                GetM    M_m>M_m    [0x400, line 0x400] 
            116   0  Directory                GetM    M_m>M_m    [0x400, line 0x400] 
            116   0  Directory                GetM    M_m>M_m    [0x400, line 0x400] 
            116   0  Directory                GetM    M_m>M_m    [0x400, line 0x400] 
            116   0  Directory                GetM    M_m>M_m    [0x400, line 0x400] 
            116   0  Directory                GetM    M_m>M_m    [0x400, line 0x400] 
            116   0  Directory                GetM    M_m>M_m    [0x400, line 0x400] 
            116   0  Directory                GetM    M_m>M_m    [0x400, line 0x400] 
            116   0  Directory                GetM    M_m>M_m    [0x400, line 0x400] 
            116   0  Directory                GetM    M_m>M_m    [0x400, line 0x400] 
            116   0  Directory                GetM    M_m>M_m    [0x400, line 0x400] 
            116   0  Directory                GetM    M_m>M_m    [0x400, line 0x400] 
            116   0  Directory                GetM    M_m>M_m    [0x400, line 0x400] 
            116   0  Directory                GetM    M_m>M_m    [0x400, line 0x400] 
            116   0  Directory                GetM    M_m>M_m    [0x400, line 0x400] 
            116   0  Directory                GetM    M_m>M_m    [0x400, line 0x400] 
            116   0  Directory                GetM    M_m>M_m    [0x400, line 0x400] 
            116   0  Directory                GetM    M_m>M_m    [0x400, line 0x400] 
            116   0  Directory                GetM    M_m>M_m    [0x400, line 0x400] 
            116   0  Directory                GetM    M_m>M_m    [0x400, line 0x400] 
            116   0  Directory                GetM    M_m>M_m    [0x400, line 0x400] 
            116   0  Directory                GetM    M_m>M_m    [0x400, line 0x400] 
            116   0  Directory                GetM    M_m>M_m    [0x400, line 0x400] 
            116   0  Directory                GetM    M_m>M_m    [0x400, line 0x400] 
            116   0  Directory                GetM    M_m>M_m    [0x400, line 0x400] 
            116   0  Directory                GetM    M_m>M_m    [0x400, line 0x400] 
            116   0  Directory                GetM    M_m>M_m    [0x400, line 0x400] 
            116   0  Directory                GetM    M_m>M_m    [0x400, line 0x400] 
            116   0  Directory                GetM    M_m>M_m    [0x400, line 0x400] 
            116   0  Directory                GetM    M_m>M_m    [0x400, line 0x400] 
            116   0  Directory                GetM    M_m>M_m    [0x400, line 0x400] 
            116   0  Directory                GetM    M_m>M_m    [0x400, line 0x400] 
            116   0  Directory                GetM    M_m>M_m    [0x400, line 0x400] 
            117   0  Directory                GetM    M_m>M_m    [0x400, line 0x400] 
            117   0  Directory                GetM    M_m>M_m    [0x400, line 0x400] 
            117   0  Directory                GetM    M_m>M_m    [0x400, line 0x400] 
            117   0  Directory                GetM    M_m>M_m    [0x400, line 0x400] 
            117   0  Directory                GetM    M_m>M_m    [0x400, line 0x400] 
            117   0  Directory                GetM    M_m>M_m    [0x400, line 0x400] 
            117   0  Directory                GetM    M_m>M_m    [0x400, line 0x400] 
            117   0  Directory                GetM    M_m>M_m    [0x400, line 0x400] 
            117   0  Directory                GetM    M_m>M_m    [0x400, line 0x400] 
            117   0  Directory                GetM    M_m>M_m    [0x400, line 0x400] 
            117   0  Directory                GetM    M_m>M_m    [0x400, line 0x400] 
            117   0  Directory                GetM    M_m>M_m    [0x400, line 0x400] 
            117   0  Directory                GetM    M_m>M_m    [0x400, line 0x400] 
            117   0  Directory                GetM    M_m>M_m    [0x400, line 0x400] 
            117   0  Directory                GetM    M_m>M_m    [0x400, line 0x400] 
            117   0  Directory                GetM    M_m>M_m    [0x400, line 0x400] 
            117   0  Directory                GetM    M_m>M_m    [0x400, line 0x400] 
            117   0  Directory                GetM    M_m>M_m    [0x400, line 0x400] 
            117   0  Directory                GetM    M_m>M_m    [0x400, line 0x400] 
            117   0  Directory                GetM    M_m>M_m    [0x400, line 0x400] 
            117   0  Directory                GetM    M_m>M_m    [0x400, line 0x400] 
            117   0  Directory                GetM    M_m>M_m    [0x400, line 0x400] 
            117   0  Directory                GetM    M_m>M_m    [0x400, line 0x400] 
            117   0  Directory                GetM    M_m>M_m    [0x400, line 0x400] 
            117   0  Directory                GetM    M_m>M_m    [0x400, line 0x400] 
            117   0  Directory                GetM    M_m>M_m    [0x400, line 0x400] 
            117   0  Directory                GetM    M_m>M_m    [0x400, line 0x400] 
            117   0  Directory                GetM    M_m>M_m    [0x400, line 0x400] 
            117   0  Directory                GetM    M_m>M_m    [0x400, line 0x400] 
            117   0  Directory                GetM    M_m>M_m    [0x400, line 0x400] 
            117   0  Directory                GetM    M_m>M_m    [0x400, line 0x400] 
            117   0  Directory                GetM    M_m>M_m    [0x400, line 0x400] 
            118   0  Directory                GetM    M_m>M_m    [0x400, line 0x400] 
            118   0  Directory                GetM    M_m>M_m    [0x400, line 0x400] 
            118   0  Directory                GetM    M_m>M_m    [0x400, line 0x400] 
            118   0  Directory                GetM    M_m>M_m    [0x400, line 0x400] 
            118   0  Directory                GetM    M_m>M_m    [0x400, line 0x400] 
            118   0  Directory                GetM    M_m>M_m    [0x400, line 0x400] 
            118   0  Directory                GetM    M_m>M_m    [0x400, line 0x400] 
            118   0  Directory                GetM    M_m>M_m    [0x400, line 0x400] 
            118   0  Directory                GetM    M_m>M_m    [0x400, line 0x400] 
            118   0  Directory                GetM    M_m>M_m    [0x400, line 0x400] 
            118   0  Directory                GetM    M_m>M_m    [0x400, line 0x400] 
            118   0  Directory                GetM    M_m>M_m    [0x400, line 0x400] 
            118   0  Directory                GetM    M_m>M_m    [0x400, line 0x400] 
            118   0  Directory                GetM    M_m>M_m    [0x400, line 0x400] 
            118   0  Directory                GetM    M_m>M_m    [0x400, line 0x400] 
            118   0  Directory                GetM    M_m>M_m    [0x400, line 0x400] 
            118   0  Directory                GetM    M_m>M_m    [0x400, line 0x400] 
            118   0  Directory                GetM    M_m>M_m    [0x400, line 0x400] 
            118   0  Directory                GetM    M_m>M_m    [0x400, line 0x400] 
            118   0  Directory                GetM    M_m>M_m    [0x400, line 0x400] 
            118   0  Directory                GetM    M_m>M_m    [0x400, line 0x400] 
            118   0  Directory                GetM    M_m>M_m    [0x400, line 0x400] 
            118   0  Directory                GetM    M_m>M_m    [0x400, line 0x400] 
            118   0  Directory                GetM    M_m>M_m    [0x400, line 0x400] 
            118   0  Directory                GetM    M_m>M_m    [0x400, line 0x400] 
            118   0  Directory                GetM    M_m>M_m    [0x400, line 0x400] 
            118   0  Directory                GetM    M_m>M_m    [0x400, line 0x400] 
            118   0  Directory                GetM    M_m>M_m    [0x400, line 0x400] 
            118   0  Directory                GetM    M_m>M_m    [0x400, line 0x400] 
            118   0  Directory                GetM    M_m>M_m    [0x400, line 0x400] 
            118   0  Directory                GetM    M_m>M_m    [0x400, line 0x400] 
            118   0  Directory                GetM    M_m>M_m    [0x400, line 0x400] 
            119   0  Directory             MemData    M_m>M      [0x58c0, line 0x58c0] 
            119   0  Directory                GetM    M_m>M_m    [0x400, line 0x400] 
            119   0  Directory                GetM    M_m>M_m    [0x400, line 0x400] 
            119   0  Directory                GetM    M_m>M_m    [0x400, line 0x400] 
            119   0  Directory                GetM    M_m>M_m    [0x400, line 0x400] 
            119   0  Directory                GetM    M_m>M_m    [0x400, line 0x400] 
            119   0  Directory                GetM    M_m>M_m    [0x400, line 0x400] 
            119   0  Directory                GetM    M_m>M_m    [0x400, line 0x400] 
            119   0  Directory                GetM    M_m>M_m    [0x400, line 0x400] 
            119   0  Directory                GetM    M_m>M_m    [0x400, line 0x400] 
            119   0  Directory                GetM    M_m>M_m    [0x400, line 0x400] 
            119   0  Directory                GetM    M_m>M_m    [0x400, line 0x400] 
            119   0  Directory                GetM    M_m>M_m    [0x400, line 0x400] 
            119   0  Directory                GetM    M_m>M_m    [0x400, line 0x400] 
            119   0  Directory                GetM    M_m>M_m    [0x400, line 0x400] 
            119   0  Directory                GetM    M_m>M_m    [0x400, line 0x400] 
            119   0  Directory                GetM    M_m>M_m    [0x400, line 0x400] 
            119   0  Directory                GetM    M_m>M_m    [0x400, line 0x400] 
            119   0  Directory                GetM    M_m>M_m    [0x400, line 0x400] 
            119   0  Directory                GetM    M_m>M_m    [0x400, line 0x400] 
            119   0  Directory                GetM    M_m>M_m    [0x400, line 0x400] 
            119   0  Directory                GetM    M_m>M_m    [0x400, line 0x400] 
            119   0  Directory                GetM    M_m>M_m    [0x400, line 0x400] 
            119   0  Directory                GetM    M_m>M_m    [0x400, line 0x400] 
            119   0  Directory                GetM    M_m>M_m    [0x400, line 0x400] 
            119   0  Directory                GetM    M_m>M_m    [0x400, line 0x400] 
            119   0  Directory                GetM    M_m>M_m    [0x400, line 0x400] 
            119   0  Directory                GetM    M_m>M_m    [0x400, line 0x400] 
            119   0  Directory                GetM    M_m>M_m    [0x400, line 0x400] 
            119   0  Directory                GetM    M_m>M_m    [0x400, line 0x400] 
            119   0  Directory                GetM    M_m>M_m    [0x400, line 0x400] 
            119   0  Directory                GetM    M_m>M_m    [0x400, line 0x400] 
            120   0  Directory                GetM    M_m>M_m    [0x400, line 0x400] 
            120   0  Directory                GetM    M_m>M_m    [0x400, line 0x400] 
            120   0  Directory                GetM    M_m>M_m    [0x400, line 0x400] 
            120   0  Directory                GetM    M_m>M_m    [0x400, line 0x400] 
            120   0  Directory                GetM    M_m>M_m    [0x400, line 0x400] 
            120   0  Directory                GetM    M_m>M_m    [0x400, line 0x400] 
            120   0  Directory                GetM    M_m>M_m    [0x400, line 0x400] 
            120   0  Directory                GetM    M_m>M_m    [0x400, line 0x400] 
            120   0  Directory                GetM    M_m>M_m    [0x400, line 0x400] 
            120   0  Directory                GetM    M_m>M_m    [0x400, line 0x400] 
            120   0  Directory                GetM    M_m>M_m    [0x400, line 0x400] 
            120   0  Directory                GetM    M_m>M_m    [0x400, line 0x400] 
            120   0  Directory                GetM    M_m>M_m    [0x400, line 0x400] 
            120   0  Directory                GetM    M_m>M_m    [0x400, line 0x400] 
            120   0  Directory                GetM    M_m>M_m    [0x400, line 0x400] 
            120   0  Directory                GetM    M_m>M_m    [0x400, line 0x400] 
            120   0  Directory                GetM    M_m>M_m    [0x400, line 0x400] 
            120   0  Directory                GetM    M_m>M_m    [0x400, line 0x400] 
            120   0  Directory                GetM    M_m>M_m    [0x400, line 0x400] 
            120   0  Directory                GetM    M_m>M_m    [0x400, line 0x400] 
            120   0  Directory                GetM    M_m>M_m    [0x400, line 0x400] 
            120   0  Directory                GetM    M_m>M_m    [0x400, line 0x400] 
            120   0  Directory                GetM    M_m>M_m    [0x400, line 0x400] 
            120   0  Directory                GetM    M_m>M_m    [0x400, line 0x400] 
            120   0  Directory                GetM    M_m>M_m    [0x400, line 0x400] 
            120   0  Directory                GetM    M_m>M_m    [0x400, line 0x400] 
            120   0  Directory                GetM    M_m>M_m    [0x400, line 0x400] 
            120   0  Directory                GetM    M_m>M_m    [0x400, line 0x400] 
            120   0  Directory                GetM    M_m>M_m    [0x400, line 0x400] 
            120   0  Directory                GetM    M_m>M_m    [0x400, line 0x400] 
            120   0  Directory                GetM    M_m>M_m    [0x400, line 0x400] 
            120   0  Directory                GetM    M_m>M_m    [0x400, line 0x400] 
            121   0  Directory                GetM    M_m>M_m    [0x400, line 0x400] 
            121   0  Directory                GetM    M_m>M_m    [0x400, line 0x400] 
            121   0  Directory                GetM    M_m>M_m    [0x400, line 0x400] 
            121   0  Directory                GetM    M_m>M_m    [0x400, line 0x400] 
            121   0  Directory                GetM    M_m>M_m    [0x400, line 0x400] 
            121   0  Directory                GetM    M_m>M_m    [0x400, line 0x400] 
            121   0  Directory                GetM    M_m>M_m    [0x400, line 0x400] 
            121   0  Directory                GetM    M_m>M_m    [0x400, line 0x400] 
            121   0  Directory                GetM    M_m>M_m    [0x400, line 0x400] 
            121   0  Directory                GetM    M_m>M_m    [0x400, line 0x400] 
            121   0  Directory                GetM    M_m>M_m    [0x400, line 0x400] 
            121   0  Directory                GetM    M_m>M_m    [0x400, line 0x400] 
            121   0  Directory                GetM    M_m>M_m    [0x400, line 0x400] 
            121   0  Directory                GetM    M_m>M_m    [0x400, line 0x400] 
            121   0  Directory                GetM    M_m>M_m    [0x400, line 0x400] 
            121   0  Directory                GetM    M_m>M_m    [0x400, line 0x400] 
            121   0  Directory                GetM    M_m>M_m    [0x400, line 0x400] 
            121   0  Directory                GetM    M_m>M_m    [0x400, line 0x400] 
            121   0  Directory                GetM    M_m>M_m    [0x400, line 0x400] 
            121   0  Directory                GetM    M_m>M_m    [0x400, line 0x400] 
            121   0  Directory                GetM    M_m>M_m    [0x400, line 0x400] 
            121   0  Directory                GetM    M_m>M_m    [0x400, line 0x400] 
            121   0  Directory                GetM    M_m>M_m    [0x400, line 0x400] 
            121   0  Directory                GetM    M_m>M_m    [0x400, line 0x400] 
            121   0  Directory                GetM    M_m>M_m    [0x400, line 0x400] 
            121   0  Directory                GetM    M_m>M_m    [0x400, line 0x400] 
            121   0  Directory                GetM    M_m>M_m    [0x400, line 0x400] 
            121   0  Directory                GetM    M_m>M_m    [0x400, line 0x400] 
            121   0  Directory                GetM    M_m>M_m    [0x400, line 0x400] 
            121   0  Directory                GetM    M_m>M_m    [0x400, line 0x400] 
            121   0  Directory                GetM    M_m>M_m    [0x400, line 0x400] 
            121   0  Directory                GetM    M_m>M_m    [0x400, line 0x400] 
            121   0        Seq               Begin       >       [0x24e8, line 0x24c0] ST
            122   0    L1Cache               Store      I>IM_AD  [0x24c0, line 0x24c0] 
            122   0  Directory                GetM    M_m>M_m    [0x400, line 0x400] 
            122   0  Directory                GetM    M_m>M_m    [0x400, line 0x400] 
            122   0  Directory                GetM    M_m>M_m    [0x400, line 0x400] 
            122   0  Directory                GetM    M_m>M_m    [0x400, line 0x400] 
            122   0  Directory                GetM    M_m>M_m    [0x400, line 0x400] 
            122   0  Directory                GetM    M_m>M_m    [0x400, line 0x400] 
            122   0  Directory                GetM    M_m>M_m    [0x400, line 0x400] 
            122   0  Directory                GetM    M_m>M_m    [0x400, line 0x400] 
            122   0  Directory                GetM    M_m>M_m    [0x400, line 0x400] 
            122   0  Directory                GetM    M_m>M_m    [0x400, line 0x400] 
            122   0  Directory                GetM    M_m>M_m    [0x400, line 0x400] 
            122   0  Directory                GetM    M_m>M_m    [0x400, line 0x400] 
            122   0  Directory                GetM    M_m>M_m    [0x400, line 0x400] 
            122   0  Directory                GetM    M_m>M_m    [0x400, line 0x400] 
            122   0  Directory                GetM    M_m>M_m    [0x400, line 0x400] 
            122   0  Directory                GetM    M_m>M_m    [0x400, line 0x400] 
            122   0  Directory                GetM    M_m>M_m    [0x400, line 0x400] 
            122   0  Directory                GetM    M_m>M_m    [0x400, line 0x400] 
            122   0  Directory                GetM    M_m>M_m    [0x400, line 0x400] 
            122   0  Directory                GetM    M_m>M_m    [0x400, line 0x400] 
            122   0  Directory                GetM    M_m>M_m    [0x400, line 0x400] 
            122   0  Directory                GetM    M_m>M_m    [0x400, line 0x400] 
            122   0  Directory                GetM    M_m>M_m    [0x400, line 0x400] 
            122   0  Directory                GetM    M_m>M_m    [0x400, line 0x400] 
            122   0  Directory                GetM    M_m>M_m    [0x400, line 0x400] 
            122   0  Directory                GetM    M_m>M_m    [0x400, line 0x400] 
            122   0  Directory                GetM    M_m>M_m    [0x400, line 0x400] 
            122   0  Directory                GetM    M_m>M_m    [0x400, line 0x400] 
            122   0  Directory                GetM    M_m>M_m    [0x400, line 0x400] 
            122   0  Directory                GetM    M_m>M_m    [0x400, line 0x400] 
            122   0  Directory                GetM    M_m>M_m    [0x400, line 0x400] 
            122   0  Directory                GetM    M_m>M_m    [0x400, line 0x400] 
            123   0  Directory                GetM    M_m>M_m    [0x400, line 0x400] 
            123   0  Directory                GetM    M_m>M_m    [0x400, line 0x400] 
            123   0  Directory                GetM    M_m>M_m    [0x400, line 0x400] 
            123   0  Directory                GetM    M_m>M_m    [0x400, line 0x400] 
            123   0  Directory                GetM    M_m>M_m    [0x400, line 0x400] 
            123   0  Directory                GetM    M_m>M_m    [0x400, line 0x400] 
            123   0  Directory                GetM    M_m>M_m    [0x400, line 0x400] 
            123   0  Directory                GetM    M_m>M_m    [0x400, line 0x400] 
            123   0  Directory                GetM    M_m>M_m    [0x400, line 0x400] 
            123   0  Directory                GetM    M_m>M_m    [0x400, line 0x400] 
            123   0  Directory                GetM    M_m>M_m    [0x400, line 0x400] 
            123   0  Directory                GetM    M_m>M_m    [0x400, line 0x400] 
            123   0  Directory                GetM    M_m>M_m    [0x400, line 0x400] 
            123   0  Directory                GetM    M_m>M_m    [0x400, line 0x400] 
            123   0  Directory                GetM    M_m>M_m    [0x400, line 0x400] 
            123   0  Directory                GetM    M_m>M_m    [0x400, line 0x400] 
            123   0  Directory                GetM    M_m>M_m    [0x400, line 0x400] 
            123   0  Directory                GetM    M_m>M_m    [0x400, line 0x400] 
            123   0  Directory                GetM    M_m>M_m    [0x400, line 0x400] 
            123   0  Directory                GetM    M_m>M_m    [0x400, line 0x400] 
            123   0  Directory                GetM    M_m>M_m    [0x400, line 0x400] 
            123   0  Directory                GetM    M_m>M_m    [0x400, line 0x400] 
            123   0  Directory                GetM    M_m>M_m    [0x400, line 0x400] 
            123   0  Directory                GetM    M_m>M_m    [0x400, line 0x400] 
            123   0  Directory                GetM    M_m>M_m    [0x400, line 0x400] 
            123   0  Directory                GetM    M_m>M_m    [0x400, line 0x400] 
            123   0  Directory                GetM    M_m>M_m    [0x400, line 0x400] 
            123   0  Directory                GetM    M_m>M_m    [0x400, line 0x400] 
            123   0  Directory                GetM    M_m>M_m    [0x400, line 0x400] 
            123   0  Directory                GetM    M_m>M_m    [0x400, line 0x400] 
            123   0  Directory                GetM    M_m>M_m    [0x400, line 0x400] 
            123   0  Directory                GetM    M_m>M_m    [0x400, line 0x400] 
            124   0  Directory                GetM    M_m>M_m    [0x400, line 0x400] 
            124   0  Directory                GetM    M_m>M_m    [0x400, line 0x400] 
            124   0  Directory                GetM    M_m>M_m    [0x400, line 0x400] 
            124   0  Directory                GetM    M_m>M_m    [0x400, line 0x400] 
            124   0  Directory                GetM    M_m>M_m    [0x400, line 0x400] 
            124   0  Directory                GetM    M_m>M_m    [0x400, line 0x400] 
            124   0  Directory                GetM    M_m>M_m    [0x400, line 0x400] 
            124   0  Directory                GetM    M_m>M_m    [0x400, line 0x400] 
[...]
           9903   0  Directory                GetM    M_m>M_m    [0x1dc0, line 0x1dc0] 
           9903   0  Directory                GetM    M_m>M_m    [0x1dc0, line 0x1dc0] 
           9903   0  Directory                GetM    M_m>M_m    [0x1dc0, line 0x1dc0] 
           9903   0  Directory                GetM    M_m>M_m    [0x1dc0, line 0x1dc0] 
           9903   0  Directory                GetM    M_m>M_m    [0x1dc0, line 0x1dc0] 
           9903   0  Directory                GetM    M_m>M_m    [0x1dc0, line 0x1dc0] 
           9903   0  Directory                GetM    M_m>M_m    [0x1dc0, line 0x1dc0] 
           9903   0  Directory                GetM    M_m>M_m    [0x1dc0, line 0x1dc0] 
           9903   0  Directory                GetM    M_m>M_m    [0x1dc0, line 0x1dc0] 
           9903   0  Directory                GetM    M_m>M_m    [0x1dc0, line 0x1dc0] 
           9903   0  Directory                GetM    M_m>M_m    [0x1dc0, line 0x1dc0] 
           9903   0  Directory                GetM    M_m>M_m    [0x1dc0, line 0x1dc0] 
           9903   0  Directory                GetM    M_m>M_m    [0x1dc0, line 0x1dc0] 
           9903   0  Directory                GetM    M_m>M_m    [0x1dc0, line 0x1dc0] 
           9903   0  Directory                GetM    M_m>M_m    [0x1dc0, line 0x1dc0] 
           9903   0  Directory                GetM    M_m>M_m    [0x1dc0, line 0x1dc0] 
           9903   0  Directory                GetM    M_m>M_m    [0x1dc0, line 0x1dc0] 
           9903   0  Directory                GetM    M_m>M_m    [0x1dc0, line 0x1dc0] 
           9903   0  Directory                GetM    M_m>M_m    [0x1dc0, line 0x1dc0] 
           9904   0  Directory                GetM    M_m>M_m    [0x1dc0, line 0x1dc0] 
           9904   0  Directory                GetM    M_m>M_m    [0x1dc0, line 0x1dc0] 
           9904   0  Directory                GetM    M_m>M_m    [0x1dc0, line 0x1dc0] 
           9904   0  Directory                GetM    M_m>M_m    [0x1dc0, line 0x1dc0] 
           9904   0  Directory                GetM    M_m>M_m    [0x1dc0, line 0x1dc0] 
           9904   0  Directory                GetM    M_m>M_m    [0x1dc0, line 0x1dc0] 
           9904   0  Directory                GetM    M_m>M_m    [0x1dc0, line 0x1dc0] 
           9904   0  Directory                GetM    M_m>M_m    [0x1dc0, line 0x1dc0] 
           9904   0  Directory                GetM    M_m>M_m    [0x1dc0, line 0x1dc0] 
           9904   0  Directory                GetM    M_m>M_m    [0x1dc0, line 0x1dc0] 
           9904   0  Directory                GetM    M_m>M_m    [0x1dc0, line 0x1dc0] 
           9904   0  Directory                GetM    M_m>M_m    [0x1dc0, line 0x1dc0] 
           9904   0  Directory                GetM    M_m>M_m    [0x1dc0, line 0x1dc0] 
           9904   0  Directory                GetM    M_m>M_m    [0x1dc0, line 0x1dc0] 
           9904   0  Directory                GetM    M_m>M_m    [0x1dc0, line 0x1dc0] 
           9904   0  Directory                GetM    M_m>M_m    [0x1dc0, line 0x1dc0] 
           9904   0  Directory                GetM    M_m>M_m    [0x1dc0, line 0x1dc0] 
           9904   0  Directory                GetM    M_m>M_m    [0x1dc0, line 0x1dc0] 
           9904   0  Directory                GetM    M_m>M_m    [0x1dc0, line 0x1dc0] 
           9904   0  Directory                GetM    M_m>M_m    [0x1dc0, line 0x1dc0] 
           9904   0  Directory                GetM    M_m>M_m    [0x1dc0, line 0x1dc0] 
           9904   0  Directory                GetM    M_m>M_m    [0x1dc0, line 0x1dc0] 
           9904   0  Directory                GetM    M_m>M_m    [0x1dc0, line 0x1dc0] 
           9904   0  Directory                GetM    M_m>M_m    [0x1dc0, line 0x1dc0] 
           9904   0  Directory                GetM    M_m>M_m    [0x1dc0, line 0x1dc0] 
           9904   0  Directory                GetM    M_m>M_m    [0x1dc0, line 0x1dc0] 
           9904   0  Directory                GetM    M_m>M_m    [0x1dc0, line 0x1dc0] 
           9904   0  Directory                GetM    M_m>M_m    [0x1dc0, line 0x1dc0] 
           9904   0  Directory                GetM    M_m>M_m    [0x1dc0, line 0x1dc0] 
           9904   0  Directory                GetM    M_m>M_m    [0x1dc0, line 0x1dc0] 
           9904   0  Directory                GetM    M_m>M_m    [0x1dc0, line 0x1dc0] 
           9904   0  Directory                GetM    M_m>M_m    [0x1dc0, line 0x1dc0] 
           9905   0  Directory                GetM    M_m>M_m    [0x1dc0, line 0x1dc0] 
           9905   0  Directory                GetM    M_m>M_m    [0x1dc0, line 0x1dc0] 
           9905   0  Directory                GetM    M_m>M_m    [0x1dc0, line 0x1dc0] 
           9905   0  Directory                GetM    M_m>M_m    [0x1dc0, line 0x1dc0] 
           9905   0  Directory                GetM    M_m>M_m    [0x1dc0, line 0x1dc0] 
           9905   0  Directory                GetM    M_m>M_m    [0x1dc0, line 0x1dc0] 
           9905   0  Directory                GetM    M_m>M_m    [0x1dc0, line 0x1dc0] 
           9905   0  Directory                GetM    M_m>M_m    [0x1dc0, line 0x1dc0] 
           9905   0  Directory                GetM    M_m>M_m    [0x1dc0, line 0x1dc0] 
           9905   0  Directory                GetM    M_m>M_m    [0x1dc0, line 0x1dc0] 
           9905   0  Directory                GetM    M_m>M_m    [0x1dc0, line 0x1dc0] 
           9905   0  Directory                GetM    M_m>M_m    [0x1dc0, line 0x1dc0] 
           9905   0  Directory                GetM    M_m>M_m    [0x1dc0, line 0x1dc0] 
           9905   0  Directory                GetM    M_m>M_m    [0x1dc0, line 0x1dc0] 
           9905   0  Directory                GetM    M_m>M_m    [0x1dc0, line 0x1dc0] 
           9905   0  Directory                GetM    M_m>M_m    [0x1dc0, line 0x1dc0] 
           9905   0  Directory                GetM    M_m>M_m    [0x1dc0, line 0x1dc0] 
           9905   0  Directory                GetM    M_m>M_m    [0x1dc0, line 0x1dc0] 
           9905   0  Directory                GetM    M_m>M_m    [0x1dc0, line 0x1dc0] 
           9905   0  Directory                GetM    M_m>M_m    [0x1dc0, line 0x1dc0] 
           9905   0  Directory                GetM    M_m>M_m    [0x1dc0, line 0x1dc0] 
           9905   0  Directory                GetM    M_m>M_m    [0x1dc0, line 0x1dc0] 
           9905   0  Directory                GetM    M_m>M_m    [0x1dc0, line 0x1dc0] 
           9905   0  Directory                GetM    M_m>M_m    [0x1dc0, line 0x1dc0] 
           9905   0  Directory                GetM    M_m>M_m    [0x1dc0, line 0x1dc0] 
           9905   0  Directory                GetM    M_m>M_m    [0x1dc0, line 0x1dc0] 
           9905   0  Directory                GetM    M_m>M_m    [0x1dc0, line 0x1dc0] 
           9905   0  Directory                GetM    M_m>M_m    [0x1dc0, line 0x1dc0] 
           9905   0  Directory                GetM    M_m>M_m    [0x1dc0, line 0x1dc0] 
           9905   0  Directory                GetM    M_m>M_m    [0x1dc0, line 0x1dc0] 
           9905   0  Directory                GetM    M_m>M_m    [0x1dc0, line 0x1dc0] 
           9905   0  Directory                GetM    M_m>M_m    [0x1dc0, line 0x1dc0] 
           9906   0  Directory                GetM    M_m>M_m    [0x1dc0, line 0x1dc0] 
           9906   0  Directory                GetM    M_m>M_m    [0x1dc0, line 0x1dc0] 
           9906   0  Directory                GetM    M_m>M_m    [0x1dc0, line 0x1dc0] 
           9906   0  Directory                GetM    M_m>M_m    [0x1dc0, line 0x1dc0] 
           9906   0  Directory                GetM    M_m>M_m    [0x1dc0, line 0x1dc0] 
           9906   0  Directory                GetM    M_m>M_m    [0x1dc0, line 0x1dc0] 
           9906   0  Directory                GetM    M_m>M_m    [0x1dc0, line 0x1dc0] 
           9906   0  Directory                GetM    M_m>M_m    [0x1dc0, line 0x1dc0] 
           9906   0  Directory                GetM    M_m>M_m    [0x1dc0, line 0x1dc0] 
           9906   0  Directory                GetM    M_m>M_m    [0x1dc0, line 0x1dc0] 
           9906   0  Directory                GetM    M_m>M_m    [0x1dc0, line 0x1dc0] 
           9906   0  Directory                GetM    M_m>M_m    [0x1dc0, line 0x1dc0] 
           9906   0  Directory                GetM    M_m>M_m    [0x1dc0, line 0x1dc0] 
           9906   0  Directory                GetM    M_m>M_m    [0x1dc0, line 0x1dc0] 
           9906   0  Directory                GetM    M_m>M_m    [0x1dc0, line 0x1dc0] 
           9906   0  Directory                GetM    M_m>M_m    [0x1dc0, line 0x1dc0] 
           9906   0  Directory                GetM    M_m>M_m    [0x1dc0, line 0x1dc0] 
           9906   0  Directory                GetM    M_m>M_m    [0x1dc0, line 0x1dc0] 
           9906   0  Directory                GetM    M_m>M_m    [0x1dc0, line 0x1dc0] 
           9906   0  Directory                GetM    M_m>M_m    [0x1dc0, line 0x1dc0] 
           9906   0  Directory                GetM    M_m>M_m    [0x1dc0, line 0x1dc0] 
           9906   0  Directory                GetM    M_m>M_m    [0x1dc0, line 0x1dc0] 
           9906   0  Directory                GetM    M_m>M_m    [0x1dc0, line 0x1dc0] 
           9906   0  Directory                GetM    M_m>M_m    [0x1dc0, line 0x1dc0] 
           9906   0  Directory                GetM    M_m>M_m    [0x1dc0, line 0x1dc0] 
           9906   0  Directory                GetM    M_m>M_m    [0x1dc0, line 0x1dc0] 
           9906   0  Directory                GetM    M_m>M_m    [0x1dc0, line 0x1dc0] 
           9906   0  Directory                GetM    M_m>M_m    [0x1dc0, line 0x1dc0] 
           9906   0  Directory                GetM    M_m>M_m    [0x1dc0, line 0x1dc0] 
           9906   0  Directory                GetM    M_m>M_m    [0x1dc0, line 0x1dc0] 
           9906   0  Directory                GetM    M_m>M_m    [0x1dc0, line 0x1dc0] 
           9906   0  Directory                GetM    M_m>M_m    [0x1dc0, line 0x1dc0] 
           9907   0  Directory                GetM    M_m>M_m    [0x1dc0, line 0x1dc0] 
           9907   0  Directory                GetM    M_m>M_m    [0x1dc0, line 0x1dc0] 
           9907   0  Directory                GetM    M_m>M_m    [0x1dc0, line 0x1dc0] 
           9907   0  Directory                GetM    M_m>M_m    [0x1dc0, line 0x1dc0] 
           9907   0  Directory                GetM    M_m>M_m    [0x1dc0, line 0x1dc0] 
           9907   0  Directory                GetM    M_m>M_m    [0x1dc0, line 0x1dc0] 
           9907   0  Directory                GetM    M_m>M_m    [0x1dc0, line 0x1dc0] 
           9907   0  Directory                GetM    M_m>M_m    [0x1dc0, line 0x1dc0] 
           9907   0  Directory                GetM    M_m>M_m    [0x1dc0, line 0x1dc0] 
           9907   0  Directory                GetM    M_m>M_m    [0x1dc0, line 0x1dc0] 
           9907   0  Directory                GetM    M_m>M_m    [0x1dc0, line 0x1dc0] 
           9907   0  Directory                GetM    M_m>M_m    [0x1dc0, line 0x1dc0] 
           9907   0  Directory                GetM    M_m>M_m    [0x1dc0, line 0x1dc0] 
           9907   0  Directory                GetM    M_m>M_m    [0x1dc0, line 0x1dc0] 
           9907   0  Directory                GetM    M_m>M_m    [0x1dc0, line 0x1dc0] 
           9907   0  Directory                GetM    M_m>M_m    [0x1dc0, line 0x1dc0] 
           9907   0  Directory                GetM    M_m>M_m    [0x1dc0, line 0x1dc0] 
           9907   0  Directory                GetM    M_m>M_m    [0x1dc0, line 0x1dc0] 
           9907   0  Directory                GetM    M_m>M_m    [0x1dc0, line 0x1dc0] 
           9907   0  Directory                GetM    M_m>M_m    [0x1dc0, line 0x1dc0] 
           9907   0  Directory                GetM    M_m>M_m    [0x1dc0, line 0x1dc0] 
           9907   0  Directory                GetM    M_m>M_m    [0x1dc0, line 0x1dc0] 
           9907   0  Directory                GetM    M_m>M_m    [0x1dc0, line 0x1dc0] 
           9907   0  Directory                GetM    M_m>M_m    [0x1dc0, line 0x1dc0] 
           9907   0  Directory                GetM    M_m>M_m    [0x1dc0, line 0x1dc0] 
           9907   0  Directory                GetM    M_m>M_m    [0x1dc0, line 0x1dc0] 
           9907   0  Directory                GetM    M_m>M_m    [0x1dc0, line 0x1dc0] 
           9907   0  Directory                GetM    M_m>M_m    [0x1dc0, line 0x1dc0] 
           9907   0  Directory                GetM    M_m>M_m    [0x1dc0, line 0x1dc0] 
           9907   0  Directory                GetM    M_m>M_m    [0x1dc0, line 0x1dc0] 
           9907   0  Directory                GetM    M_m>M_m    [0x1dc0, line 0x1dc0] 
           9907   0  Directory                GetM    M_m>M_m    [0x1dc0, line 0x1dc0] 
           9908   0  Directory                GetM    M_m>M_m    [0x1dc0, line 0x1dc0] 
           9908   0  Directory                GetM    M_m>M_m    [0x1dc0, line 0x1dc0] 
           9908   0  Directory                GetM    M_m>M_m    [0x1dc0, line 0x1dc0] 
           9908   0  Directory                GetM    M_m>M_m    [0x1dc0, line 0x1dc0] 
           9908   0  Directory                GetM    M_m>M_m    [0x1dc0, line 0x1dc0] 
           9908   0  Directory                GetM    M_m>M_m    [0x1dc0, line 0x1dc0] 
           9908   0  Directory                GetM    M_m>M_m    [0x1dc0, line 0x1dc0] 
           9908   0  Directory                GetM    M_m>M_m    [0x1dc0, line 0x1dc0] 
           9908   0  Directory                GetM    M_m>M_m    [0x1dc0, line 0x1dc0] 
           9908   0  Directory                GetM    M_m>M_m    [0x1dc0, line 0x1dc0] 
           9908   0  Directory                GetM    M_m>M_m    [0x1dc0, line 0x1dc0] 
           9908   0  Directory                GetM    M_m>M_m    [0x1dc0, line 0x1dc0] 
           9908   0  Directory                GetM    M_m>M_m    [0x1dc0, line 0x1dc0] 
           9908   0  Directory                GetM    M_m>M_m    [0x1dc0, line 0x1dc0] 
           9908   0  Directory                GetM    M_m>M_m    [0x1dc0, line 0x1dc0] 
           9908   0  Directory                GetM    M_m>M_m    [0x1dc0, line 0x1dc0] 
           9908   0  Directory                GetM    M_m>M_m    [0x1dc0, line 0x1dc0] 
           9908   0  Directory                GetM    M_m>M_m    [0x1dc0, line 0x1dc0] 
           9908   0  Directory                GetM    M_m>M_m    [0x1dc0, line 0x1dc0] 
           9908   0  Directory                GetM    M_m>M_m    [0x1dc0, line 0x1dc0] 
           9908   0  Directory                GetM    M_m>M_m    [0x1dc0, line 0x1dc0] 
           9908   0  Directory                GetM    M_m>M_m    [0x1dc0, line 0x1dc0] 
           9908   0  Directory                GetM    M_m>M_m    [0x1dc0, line 0x1dc0] 
           9908   0  Directory                GetM    M_m>M_m    [0x1dc0, line 0x1dc0] 
           9908   0  Directory                GetM    M_m>M_m    [0x1dc0, line 0x1dc0] 
           9908   0  Directory                GetM    M_m>M_m    [0x1dc0, line 0x1dc0] 
           9908   0  Directory                GetM    M_m>M_m    [0x1dc0, line 0x1dc0] 
           9908   0  Directory                GetM    M_m>M_m    [0x1dc0, line 0x1dc0] 
           9908   0  Directory                GetM    M_m>M_m    [0x1dc0, line 0x1dc0] 
           9908   0  Directory                GetM    M_m>M_m    [0x1dc0, line 0x1dc0] 
           9908   0  Directory                GetM    M_m>M_m    [0x1dc0, line 0x1dc0] 
           9908   0  Directory                GetM    M_m>M_m    [0x1dc0, line 0x1dc0] 
           9909   0  Directory             MemData    M_m>M      [0x1dc0, line 0x1dc0] 
           9909   0  Directory                GetM      M>M      [0x1dc0, line 0x1dc0] 
           9909   0  Directory                GetM      M>M      [0x2ac0, line 0x2ac0] 
           9909   0  Directory                GetM      M>M      [0x53c0, line 0x53c0] 
           9909   0  Directory                GetM      M>M      [0x3bc0, line 0x3bc0] 
           9911   1        Seq               Begin       >       [0x3aef, line 0x3ac0] ST
           9912   1        Seq                Done       >       [0x3aef, line 0x3ac0] 0 cycles
           9912   1    L1Cache               Store      M>M      [0x3ac0, line 0x3ac0] 
           9914   0        Seq                Done       >       [0x1def, line 0x1dc0] 0 cycles
           9914   0    L1Cache       DataDirNoAcks  IM_AD>M      [0x1dc0, line 0x1dc0] 
           9914   1    L1Cache             FwdGetM      M>I      [0x2ac0, line 0x2ac0] 
           9914   1    L1Cache             FwdGetM      M>I      [0x3bc0, line 0x3bc0] 
           9918   0    L1Cache             FwdGetM      M>I      [0x1dc0, line 0x1dc0] 
           9919   0        Seq                Done       >       [0x2aeb, line 0x2ac0] 0 cycles
           9919   0    L1Cache           DataOwner  IM_AD>M      [0x2ac0, line 0x2ac0] 
           9921   0        Seq               Begin       >       [0x42ef, line 0x42c0] ST
           9922   0        Seq                Done       >       [0x42ef, line 0x42c0] 0 cycles
           9922   0    L1Cache               Store      M>M      [0x42c0, line 0x42c0] 
           9923   0        Seq                Done       >       [0x3be8, line 0x3bc0] 0 cycles
           9923   0    L1Cache           DataOwner  IM_AD>M      [0x3bc0, line 0x3bc0] 
           9923   1        Seq                Done       >       [0x1deb, line 0x1dc0] 0 cycles
           9923   1    L1Cache           DataOwner  IM_AD>M      [0x1dc0, line 0x1dc0] 
           9928   0    L1Cache             FwdGetM      M>I      [0x53c0, line 0x53c0] 
           9931   0        Seq               Begin       >       [0x2fee, line 0x2fc0] ST
           9932   0        Seq                Done       >       [0x2fee, line 0x2fc0] 0 cycles
           9932   0    L1Cache               Store      M>M      [0x2fc0, line 0x2fc0] 
           9933   1        Seq                Done       >       [0x53ec, line 0x53c0] 0 cycles
           9933   1    L1Cache           DataOwner  IM_AD>M      [0x53c0, line 0x53c0] 
           9941   1        Seq               Begin       >       [0x2fef, line 0x2fc0] ST
           9942   1    L1Cache               Store      I>IM_AD  [0x2fc0, line 0x2fc0] 
           9947   0  Directory                GetM      M>M      [0x2fc0, line 0x2fc0] 
           9951   0        Seq               Begin       >       [0x30ea, line 0x30c0] ST
           9952   0    L1Cache             FwdGetM      M>I      [0x2fc0, line 0x2fc0] 
           9952   0        Seq                Done       >       [0x30ea, line 0x30c0] 0 cycles
           9952   0    L1Cache               Store      M>M      [0x30c0, line 0x30c0] 
           9957   1        Seq                Done       >       [0x2fef, line 0x2fc0] 0 cycles
           9957   1    L1Cache           DataOwner  IM_AD>M      [0x2fc0, line 0x2fc0] 
           9961   0        Seq               Begin       >       [0x11e9, line 0x11c0] ST
           9962   0    L1Cache               Store      I>IM_AD  [0x11c0, line 0x11c0] 
           9967   0  Directory                GetM      M>M      [0x11c0, line 0x11c0] 
           9971   0        Seq               Begin       >       [0x39e8, line 0x39c0] LD
           9972   0        Seq                Done       >       [0x39e8, line 0x39c0] 0 cycles
           9972   0    L1Cache                Load      M>M      [0x39c0, line 0x39c0] 
           9972   1    L1Cache             FwdGetM      M>I      [0x11c0, line 0x11c0] 
           9977   0        Seq                Done       >       [0x11e9, line 0x11c0] 0 cycles
           9977   0    L1Cache           DataOwner  IM_AD>M      [0x11c0, line 0x11c0] 
Exiting @ tick 9981 because Ruby Tester completed
