Global frequency set at 1000000000 ticks per second
gem5 Simulator System.  http://gem5.org
gem5 is copyrighted software; use the --copyright option for details.

gem5 version 20.1.0.4
gem5 compiled Mar 17 2021 18:58:12
gem5 started Mar 17 2021 19:09:23
gem5 executing on ppetrica-laptop, pid 39228
command line: ./build/X86_MI/gem5.opt --debug-flags=ProtocolTrace configs/learning_gem5/part3/ruby_test.py

Beginning simulation!
              1   0        Seq               Begin       >       [0x3fec, line 0x3fc0] ST
              2   0    L1Cache               Store      I>IM_S   [0x3fc0, line 0x3fc0] 
              7   0  Directory                GetM      I>M_m    [0x3fc0, line 0x3fc0] 
             11   1        Seq               Begin       >       [0x46ec, line 0x46c0] ST
             12   1    L1Cache               Store      I>IM_S   [0x46c0, line 0x46c0] 
             17   0  Directory                GetM      I>M_m    [0x46c0, line 0x46c0] 
             21   1        Seq               Begin       >       [0xdec, line 0xdc0] ST
             22   1    L1Cache               Store      I>IM_S   [0xdc0, line 0xdc0] 
             27   0  Directory                GetM      I>M_m    [0xdc0, line 0xdc0] 
             31   1        Seq               Begin       >       [0x36e8, line 0x36c0] ST
             32   1    L1Cache               Store      I>IM_S   [0x36c0, line 0x36c0] 
             37   0  Directory                GetM      I>M_m    [0x36c0, line 0x36c0] 
             41   0        Seq               Begin       >       [0x1be8, line 0x1bc0] ST
             42   0    L1Cache               Store      I>IM_S   [0x1bc0, line 0x1bc0] 
             47   0  Directory                GetM      I>M_m    [0x1bc0, line 0x1bc0] 
             51   1        Seq               Begin       >       [0x3bec, line 0x3bc0] ST
             52   1    L1Cache               Store      I>IM_S   [0x3bc0, line 0x3bc0] 
             57   0  Directory                GetM      I>M_m    [0x3bc0, line 0x3bc0] 
             59   0  Directory             MemData    M_m>M      [0x3fc0, line 0x3fc0] 
             61   0        Seq               Begin       >       [0x58ec, line 0x58c0] ST
             62   0    L1Cache               Store      I>IM_S   [0x58c0, line 0x58c0] 
             64   0        Seq                Done       >       [0x3fec, line 0x3fc0] 0 cycles
             64   0    L1Cache             DataDir   IM_S>M      [0x3fc0, line 0x3fc0] 
             67   0  Directory                GetM      I>M_m    [0x58c0, line 0x58c0] 
             69   0  Directory             MemData    M_m>M      [0x46c0, line 0x46c0] 
             71   0        Seq               Begin       >       [0x424, line 0x400] ST
             72   0    L1Cache               Store      I>IM_S   [0x400, line 0x400] 
             74   1        Seq                Done       >       [0x46ec, line 0x46c0] 0 cycles
             74   1    L1Cache             DataDir   IM_S>M      [0x46c0, line 0x46c0] 
             77   0  Directory                GetM      I>M_m    [0x400, line 0x400] 
             79   0  Directory             MemData    M_m>M      [0xdc0, line 0xdc0] 
             81   0        Seq               Begin       >       [0x2dec, line 0x2dc0] ST
             82   0    L1Cache               Store      I>IM_S   [0x2dc0, line 0x2dc0] 
             84   1        Seq                Done       >       [0xdec, line 0xdc0] 0 cycles
             84   1    L1Cache             DataDir   IM_S>M      [0xdc0, line 0xdc0] 
             87   0  Directory                GetM      I>M_m    [0x2dc0, line 0x2dc0] 
             89   0  Directory             MemData    M_m>M      [0x36c0, line 0x36c0] 
             91   1        Seq               Begin       >       [0x428, line 0x400] ST
             92   1    L1Cache               Store      I>IM_S   [0x400, line 0x400] 
             94   1        Seq                Done       >       [0x36e8, line 0x36c0] 0 cycles
             94   1    L1Cache             DataDir   IM_S>M      [0x36c0, line 0x36c0] 
             97   0  Directory                GetM    M_m>M_m    [0x400, line 0x400] 
             97   0  Directory                GetM    M_m>M_m    [0x400, line 0x400] 
             97   0  Directory                GetM    M_m>M_m    [0x400, line 0x400] 
             97   0  Directory                GetM    M_m>M_m    [0x400, line 0x400] 
             97   0  Directory                GetM    M_m>M_m    [0x400, line 0x400] 
             97   0  Directory                GetM    M_m>M_m    [0x400, line 0x400] 
             97   0  Directory                GetM    M_m>M_m    [0x400, line 0x400] 
             97   0  Directory                GetM    M_m>M_m    [0x400, line 0x400] 
             97   0  Directory                GetM    M_m>M_m    [0x400, line 0x400] 
             97   0  Directory                GetM    M_m>M_m    [0x400, line 0x400] 
             97   0  Directory                GetM    M_m>M_m    [0x400, line 0x400] 
             97   0  Directory                GetM    M_m>M_m    [0x400, line 0x400] 
             97   0  Directory                GetM    M_m>M_m    [0x400, line 0x400] 
             97   0  Directory                GetM    M_m>M_m    [0x400, line 0x400] 
             97   0  Directory                GetM    M_m>M_m    [0x400, line 0x400] 
             97   0  Directory                GetM    M_m>M_m    [0x400, line 0x400] 
             97   0  Directory                GetM    M_m>M_m    [0x400, line 0x400] 
             97   0  Directory                GetM    M_m>M_m    [0x400, line 0x400] 
             97   0  Directory                GetM    M_m>M_m    [0x400, line 0x400] 
             97   0  Directory                GetM    M_m>M_m    [0x400, line 0x400] 
             97   0  Directory                GetM    M_m>M_m    [0x400, line 0x400] 
             97   0  Directory                GetM    M_m>M_m    [0x400, line 0x400] 
             97   0  Directory                GetM    M_m>M_m    [0x400, line 0x400] 
             97   0  Directory                GetM    M_m>M_m    [0x400, line 0x400] 
             97   0  Directory                GetM    M_m>M_m    [0x400, line 0x400] 
             97   0  Directory                GetM    M_m>M_m    [0x400, line 0x400] 
             97   0  Directory                GetM    M_m>M_m    [0x400, line 0x400] 
             97   0  Directory                GetM    M_m>M_m    [0x400, line 0x400] 
             97   0  Directory                GetM    M_m>M_m    [0x400, line 0x400] 
             97   0  Directory                GetM    M_m>M_m    [0x400, line 0x400] 
             97   0  Directory                GetM    M_m>M_m    [0x400, line 0x400] 
             97   0  Directory                GetM    M_m>M_m    [0x400, line 0x400] 
             98   0  Directory                GetM    M_m>M_m    [0x400, line 0x400] 
             98   0  Directory                GetM    M_m>M_m    [0x400, line 0x400] 
             98   0  Directory                GetM    M_m>M_m    [0x400, line 0x400] 
             98   0  Directory                GetM    M_m>M_m    [0x400, line 0x400] 
             98   0  Directory                GetM    M_m>M_m    [0x400, line 0x400] 
             98   0  Directory                GetM    M_m>M_m    [0x400, line 0x400] 
             98   0  Directory                GetM    M_m>M_m    [0x400, line 0x400] 
             98   0  Directory                GetM    M_m>M_m    [0x400, line 0x400] 
             98   0  Directory                GetM    M_m>M_m    [0x400, line 0x400] 
             98   0  Directory                GetM    M_m>M_m    [0x400, line 0x400] 
             98   0  Directory                GetM    M_m>M_m    [0x400, line 0x400] 
             98   0  Directory                GetM    M_m>M_m    [0x400, line 0x400] 
             98   0  Directory                GetM    M_m>M_m    [0x400, line 0x400] 
             98   0  Directory                GetM    M_m>M_m    [0x400, line 0x400] 
             98   0  Directory                GetM    M_m>M_m    [0x400, line 0x400] 
             98   0  Directory                GetM    M_m>M_m    [0x400, line 0x400] 
             98   0  Directory                GetM    M_m>M_m    [0x400, line 0x400] 
             98   0  Directory                GetM    M_m>M_m    [0x400, line 0x400] 
             98   0  Directory                GetM    M_m>M_m    [0x400, line 0x400] 
             98   0  Directory                GetM    M_m>M_m    [0x400, line 0x400] 
             98   0  Directory                GetM    M_m>M_m    [0x400, line 0x400] 
             98   0  Directory                GetM    M_m>M_m    [0x400, line 0x400] 
             98   0  Directory                GetM    M_m>M_m    [0x400, line 0x400] 
             98   0  Directory                GetM    M_m>M_m    [0x400, line 0x400] 
             98   0  Directory                GetM    M_m>M_m    [0x400, line 0x400] 
             98   0  Directory                GetM    M_m>M_m    [0x400, line 0x400] 
             98   0  Directory                GetM    M_m>M_m    [0x400, line 0x400] 
             98   0  Directory                GetM    M_m>M_m    [0x400, line 0x400] 
             98   0  Directory                GetM    M_m>M_m    [0x400, line 0x400] 
             98   0  Directory                GetM    M_m>M_m    [0x400, line 0x400] 
             98   0  Directory                GetM    M_m>M_m    [0x400, line 0x400] 
             98   0  Directory                GetM    M_m>M_m    [0x400, line 0x400] 
             99   0  Directory             MemData    M_m>M      [0x1bc0, line 0x1bc0] 
             99   0  Directory                GetM    M_m>M_m    [0x400, line 0x400] 
             99   0  Directory                GetM    M_m>M_m    [0x400, line 0x400] 
             99   0  Directory                GetM    M_m>M_m    [0x400, line 0x400] 
             99   0  Directory                GetM    M_m>M_m    [0x400, line 0x400] 
             99   0  Directory                GetM    M_m>M_m    [0x400, line 0x400] 
             99   0  Directory                GetM    M_m>M_m    [0x400, line 0x400] 
             99   0  Directory                GetM    M_m>M_m    [0x400, line 0x400] 
             99   0  Directory                GetM    M_m>M_m    [0x400, line 0x400] 
             99   0  Directory                GetM    M_m>M_m    [0x400, line 0x400] 
             99   0  Directory                GetM    M_m>M_m    [0x400, line 0x400] 
             99   0  Directory                GetM    M_m>M_m    [0x400, line 0x400] 
             99   0  Directory                GetM    M_m>M_m    [0x400, line 0x400] 
             99   0  Directory                GetM    M_m>M_m    [0x400, line 0x400] 
             99   0  Directory                GetM    M_m>M_m    [0x400, line 0x400] 
             99   0  Directory                GetM    M_m>M_m    [0x400, line 0x400] 
             99   0  Directory                GetM    M_m>M_m    [0x400, line 0x400] 
             99   0  Directory                GetM    M_m>M_m    [0x400, line 0x400] 
             99   0  Directory                GetM    M_m>M_m    [0x400, line 0x400] 
             99   0  Directory                GetM    M_m>M_m    [0x400, line 0x400] 
             99   0  Directory                GetM    M_m>M_m    [0x400, line 0x400] 
             99   0  Directory                GetM    M_m>M_m    [0x400, line 0x400] 
             99   0  Directory                GetM    M_m>M_m    [0x400, line 0x400] 
             99   0  Directory                GetM    M_m>M_m    [0x400, line 0x400] 
             99   0  Directory                GetM    M_m>M_m    [0x400, line 0x400] 
             99   0  Directory                GetM    M_m>M_m    [0x400, line 0x400] 
             99   0  Directory                GetM    M_m>M_m    [0x400, line 0x400] 
             99   0  Directory                GetM    M_m>M_m    [0x400, line 0x400] 
             99   0  Directory                GetM    M_m>M_m    [0x400, line 0x400] 
             99   0  Directory                GetM    M_m>M_m    [0x400, line 0x400] 
             99   0  Directory                GetM    M_m>M_m    [0x400, line 0x400] 
             99   0  Directory                GetM    M_m>M_m    [0x400, line 0x400] 
            100   0  Directory                GetM    M_m>M_m    [0x400, line 0x400] 
            100   0  Directory                GetM    M_m>M_m    [0x400, line 0x400] 
            100   0  Directory                GetM    M_m>M_m    [0x400, line 0x400] 
            100   0  Directory                GetM    M_m>M_m    [0x400, line 0x400] 
            100   0  Directory                GetM    M_m>M_m    [0x400, line 0x400] 
            100   0  Directory                GetM    M_m>M_m    [0x400, line 0x400] 
            100   0  Directory                GetM    M_m>M_m    [0x400, line 0x400] 
            100   0  Directory                GetM    M_m>M_m    [0x400, line 0x400] 
            100   0  Directory                GetM    M_m>M_m    [0x400, line 0x400] 
            100   0  Directory                GetM    M_m>M_m    [0x400, line 0x400] 
            100   0  Directory                GetM    M_m>M_m    [0x400, line 0x400] 
            100   0  Directory                GetM    M_m>M_m    [0x400, line 0x400] 
            100   0  Directory                GetM    M_m>M_m    [0x400, line 0x400] 
            100   0  Directory                GetM    M_m>M_m    [0x400, line 0x400] 
            100   0  Directory                GetM    M_m>M_m    [0x400, line 0x400] 
            100   0  Directory                GetM    M_m>M_m    [0x400, line 0x400] 
            100   0  Directory                GetM    M_m>M_m    [0x400, line 0x400] 
            100   0  Directory                GetM    M_m>M_m    [0x400, line 0x400] 
            100   0  Directory                GetM    M_m>M_m    [0x400, line 0x400] 
            100   0  Directory                GetM    M_m>M_m    [0x400, line 0x400] 
            100   0  Directory                GetM    M_m>M_m    [0x400, line 0x400] 
            100   0  Directory                GetM    M_m>M_m    [0x400, line 0x400] 
            100   0  Directory                GetM    M_m>M_m    [0x400, line 0x400] 
            100   0  Directory                GetM    M_m>M_m    [0x400, line 0x400] 
            100   0  Directory                GetM    M_m>M_m    [0x400, line 0x400] 
            100   0  Directory                GetM    M_m>M_m    [0x400, line 0x400] 
            100   0  Directory                GetM    M_m>M_m    [0x400, line 0x400] 
            100   0  Directory                GetM    M_m>M_m    [0x400, line 0x400] 
            100   0  Directory                GetM    M_m>M_m    [0x400, line 0x400] 
            100   0  Directory                GetM    M_m>M_m    [0x400, line 0x400] 
            100   0  Directory                GetM    M_m>M_m    [0x400, line 0x400] 
            100   0  Directory                GetM    M_m>M_m    [0x400, line 0x400] 
            101   0  Directory                GetM    M_m>M_m    [0x400, line 0x400] 
            101   0  Directory                GetM    M_m>M_m    [0x400, line 0x400] 
            101   0  Directory                GetM    M_m>M_m    [0x400, line 0x400] 
            101   0  Directory                GetM    M_m>M_m    [0x400, line 0x400] 
            101   0  Directory                GetM    M_m>M_m    [0x400, line 0x400] 
            101   0  Directory                GetM    M_m>M_m    [0x400, line 0x400] 
            101   0  Directory                GetM    M_m>M_m    [0x400, line 0x400] 
            101   0  Directory                GetM    M_m>M_m    [0x400, line 0x400] 
            101   0  Directory                GetM    M_m>M_m    [0x400, line 0x400] 
            101   0  Directory                GetM    M_m>M_m    [0x400, line 0x400] 
            101   0  Directory                GetM    M_m>M_m    [0x400, line 0x400] 
            101   0  Directory                GetM    M_m>M_m    [0x400, line 0x400] 
            101   0  Directory                GetM    M_m>M_m    [0x400, line 0x400] 
            101   0  Directory                GetM    M_m>M_m    [0x400, line 0x400] 
            101   0  Directory                GetM    M_m>M_m    [0x400, line 0x400] 
            101   0  Directory                GetM    M_m>M_m    [0x400, line 0x400] 
            101   0  Directory                GetM    M_m>M_m    [0x400, line 0x400] 
            101   0  Directory                GetM    M_m>M_m    [0x400, line 0x400] 
            101   0  Directory                GetM    M_m>M_m    [0x400, line 0x400] 
            101   0  Directory                GetM    M_m>M_m    [0x400, line 0x400] 
            101   0  Directory                GetM    M_m>M_m    [0x400, line 0x400] 
            101   0  Directory                GetM    M_m>M_m    [0x400, line 0x400] 
            101   0  Directory                GetM    M_m>M_m    [0x400, line 0x400] 
            101   0  Directory                GetM    M_m>M_m    [0x400, line 0x400] 
            101   0  Directory                GetM    M_m>M_m    [0x400, line 0x400] 
            101   0  Directory                GetM    M_m>M_m    [0x400, line 0x400] 
            101   0  Directory                GetM    M_m>M_m    [0x400, line 0x400] 
            101   0  Directory                GetM    M_m>M_m    [0x400, line 0x400] 
            101   0  Directory                GetM    M_m>M_m    [0x400, line 0x400] 
            101   0  Directory                GetM    M_m>M_m    [0x400, line 0x400] 
            101   0  Directory                GetM    M_m>M_m    [0x400, line 0x400] 
            101   0  Directory                GetM    M_m>M_m    [0x400, line 0x400] 
            101   0        Seq               Begin       >       [0x7e8, line 0x7c0] ST
            102   0    L1Cache               Store      I>IM_S   [0x7c0, line 0x7c0] 
            102   0  Directory                GetM    M_m>M_m    [0x400, line 0x400] 
            102   0  Directory                GetM    M_m>M_m    [0x400, line 0x400] 
            102   0  Directory                GetM    M_m>M_m    [0x400, line 0x400] 
            102   0  Directory                GetM    M_m>M_m    [0x400, line 0x400] 
            102   0  Directory                GetM    M_m>M_m    [0x400, line 0x400] 
            102   0  Directory                GetM    M_m>M_m    [0x400, line 0x400] 
            102   0  Directory                GetM    M_m>M_m    [0x400, line 0x400] 
            102   0  Directory                GetM    M_m>M_m    [0x400, line 0x400] 
            102   0  Directory                GetM    M_m>M_m    [0x400, line 0x400] 
            102   0  Directory                GetM    M_m>M_m    [0x400, line 0x400] 
            102   0  Directory                GetM    M_m>M_m    [0x400, line 0x400] 
            102   0  Directory                GetM    M_m>M_m    [0x400, line 0x400] 
            102   0  Directory                GetM    M_m>M_m    [0x400, line 0x400] 
            102   0  Directory                GetM    M_m>M_m    [0x400, line 0x400] 
            102   0  Directory                GetM    M_m>M_m    [0x400, line 0x400] 
            102   0  Directory                GetM    M_m>M_m    [0x400, line 0x400] 
            102   0  Directory                GetM    M_m>M_m    [0x400, line 0x400] 
            102   0  Directory                GetM    M_m>M_m    [0x400, line 0x400] 
            102   0  Directory                GetM    M_m>M_m    [0x400, line 0x400] 
            102   0  Directory                GetM    M_m>M_m    [0x400, line 0x400] 
            102   0  Directory                GetM    M_m>M_m    [0x400, line 0x400] 
            102   0  Directory                GetM    M_m>M_m    [0x400, line 0x400] 
            102   0  Directory                GetM    M_m>M_m    [0x400, line 0x400] 
            102   0  Directory                GetM    M_m>M_m    [0x400, line 0x400] 
            102   0  Directory                GetM    M_m>M_m    [0x400, line 0x400] 
            102   0  Directory                GetM    M_m>M_m    [0x400, line 0x400] 
            102   0  Directory                GetM    M_m>M_m    [0x400, line 0x400] 
            102   0  Directory                GetM    M_m>M_m    [0x400, line 0x400] 
            102   0  Directory                GetM    M_m>M_m    [0x400, line 0x400] 
            102   0  Directory                GetM    M_m>M_m    [0x400, line 0x400] 
            102   0  Directory                GetM    M_m>M_m    [0x400, line 0x400] 
            102   0  Directory                GetM    M_m>M_m    [0x400, line 0x400] 
            103   0  Directory                GetM    M_m>M_m    [0x400, line 0x400] 
            103   0  Directory                GetM    M_m>M_m    [0x400, line 0x400] 
            103   0  Directory                GetM    M_m>M_m    [0x400, line 0x400] 
            103   0  Directory                GetM    M_m>M_m    [0x400, line 0x400] 
            103   0  Directory                GetM    M_m>M_m    [0x400, line 0x400] 
            103   0  Directory                GetM    M_m>M_m    [0x400, line 0x400] 
            103   0  Directory                GetM    M_m>M_m    [0x400, line 0x400] 
            103   0  Directory                GetM    M_m>M_m    [0x400, line 0x400] 
            103   0  Directory                GetM    M_m>M_m    [0x400, line 0x400] 
            103   0  Directory                GetM    M_m>M_m    [0x400, line 0x400] 
            103   0  Directory                GetM    M_m>M_m    [0x400, line 0x400] 
            103   0  Directory                GetM    M_m>M_m    [0x400, line 0x400] 
            103   0  Directory                GetM    M_m>M_m    [0x400, line 0x400] 
            103   0  Directory                GetM    M_m>M_m    [0x400, line 0x400] 
            103   0  Directory                GetM    M_m>M_m    [0x400, line 0x400] 
            103   0  Directory                GetM    M_m>M_m    [0x400, line 0x400] 
            103   0  Directory                GetM    M_m>M_m    [0x400, line 0x400] 
            103   0  Directory                GetM    M_m>M_m    [0x400, line 0x400] 
            103   0  Directory                GetM    M_m>M_m    [0x400, line 0x400] 
            103   0  Directory                GetM    M_m>M_m    [0x400, line 0x400] 
            103   0  Directory                GetM    M_m>M_m    [0x400, line 0x400] 
            103   0  Directory                GetM    M_m>M_m    [0x400, line 0x400] 
            103   0  Directory                GetM    M_m>M_m    [0x400, line 0x400] 
            103   0  Directory                GetM    M_m>M_m    [0x400, line 0x400] 
            103   0  Directory                GetM    M_m>M_m    [0x400, line 0x400] 
            103   0  Directory                GetM    M_m>M_m    [0x400, line 0x400] 
            103   0  Directory                GetM    M_m>M_m    [0x400, line 0x400] 
            103   0  Directory                GetM    M_m>M_m    [0x400, line 0x400] 
            103   0  Directory                GetM    M_m>M_m    [0x400, line 0x400] 
            103   0  Directory                GetM    M_m>M_m    [0x400, line 0x400] 
            103   0  Directory                GetM    M_m>M_m    [0x400, line 0x400] 
            103   0  Directory                GetM    M_m>M_m    [0x400, line 0x400] 
            104   0  Directory                GetM    M_m>M_m    [0x400, line 0x400] 
            104   0  Directory                GetM    M_m>M_m    [0x400, line 0x400] 
            104   0  Directory                GetM    M_m>M_m    [0x400, line 0x400] 
            104   0  Directory                GetM    M_m>M_m    [0x400, line 0x400] 
            104   0  Directory                GetM    M_m>M_m    [0x400, line 0x400] 
            104   0  Directory                GetM    M_m>M_m    [0x400, line 0x400] 
            104   0  Directory                GetM    M_m>M_m    [0x400, line 0x400] 
            104   0  Directory                GetM    M_m>M_m    [0x400, line 0x400] 
            104   0  Directory                GetM    M_m>M_m    [0x400, line 0x400] 
            104   0  Directory                GetM    M_m>M_m    [0x400, line 0x400] 
            104   0  Directory                GetM    M_m>M_m    [0x400, line 0x400] 
            104   0  Directory                GetM    M_m>M_m    [0x400, line 0x400] 
            104   0  Directory                GetM    M_m>M_m    [0x400, line 0x400] 
            104   0  Directory                GetM    M_m>M_m    [0x400, line 0x400] 
            104   0  Directory                GetM    M_m>M_m    [0x400, line 0x400] 
            104   0  Directory                GetM    M_m>M_m    [0x400, line 0x400] 
            104   0  Directory                GetM    M_m>M_m    [0x400, line 0x400] 
            104   0  Directory                GetM    M_m>M_m    [0x400, line 0x400] 
            104   0  Directory                GetM    M_m>M_m    [0x400, line 0x400] 
            104   0  Directory                GetM    M_m>M_m    [0x400, line 0x400] 
            104   0  Directory                GetM    M_m>M_m    [0x400, line 0x400] 
            104   0  Directory                GetM    M_m>M_m    [0x400, line 0x400] 
            104   0  Directory                GetM    M_m>M_m    [0x400, line 0x400] 
            104   0  Directory                GetM    M_m>M_m    [0x400, line 0x400] 
            104   0  Directory                GetM    M_m>M_m    [0x400, line 0x400] 
            104   0  Directory                GetM    M_m>M_m    [0x400, line 0x400] 
            104   0  Directory                GetM    M_m>M_m    [0x400, line 0x400] 
            104   0  Directory                GetM    M_m>M_m    [0x400, line 0x400] 
            104   0  Directory                GetM    M_m>M_m    [0x400, line 0x400] 
            104   0  Directory                GetM    M_m>M_m    [0x400, line 0x400] 
            104   0  Directory                GetM    M_m>M_m    [0x400, line 0x400] 
            104   0  Directory                GetM    M_m>M_m    [0x400, line 0x400] 
            104   0        Seq                Done       >       [0x1be8, line 0x1bc0] 0 cycles
            104   0    L1Cache             DataDir   IM_S>M      [0x1bc0, line 0x1bc0] 
            105   0  Directory                GetM    M_m>M_m    [0x400, line 0x400] 
            105   0  Directory                GetM    M_m>M_m    [0x400, line 0x400] 
            105   0  Directory                GetM    M_m>M_m    [0x400, line 0x400] 
            105   0  Directory                GetM    M_m>M_m    [0x400, line 0x400] 
            105   0  Directory                GetM    M_m>M_m    [0x400, line 0x400] 
            105   0  Directory                GetM    M_m>M_m    [0x400, line 0x400] 
            105   0  Directory                GetM    M_m>M_m    [0x400, line 0x400] 
            105   0  Directory                GetM    M_m>M_m    [0x400, line 0x400] 
            105   0  Directory                GetM    M_m>M_m    [0x400, line 0x400] 
            105   0  Directory                GetM    M_m>M_m    [0x400, line 0x400] 
            105   0  Directory                GetM    M_m>M_m    [0x400, line 0x400] 
            105   0  Directory                GetM    M_m>M_m    [0x400, line 0x400] 
            105   0  Directory                GetM    M_m>M_m    [0x400, line 0x400] 
            105   0  Directory                GetM    M_m>M_m    [0x400, line 0x400] 
            105   0  Directory                GetM    M_m>M_m    [0x400, line 0x400] 
            105   0  Directory                GetM    M_m>M_m    [0x400, line 0x400] 
            105   0  Directory                GetM    M_m>M_m    [0x400, line 0x400] 
            105   0  Directory                GetM    M_m>M_m    [0x400, line 0x400] 
            105   0  Directory                GetM    M_m>M_m    [0x400, line 0x400] 
            105   0  Directory                GetM    M_m>M_m    [0x400, line 0x400] 
            105   0  Directory                GetM    M_m>M_m    [0x400, line 0x400] 
            105   0  Directory                GetM    M_m>M_m    [0x400, line 0x400] 
            105   0  Directory                GetM    M_m>M_m    [0x400, line 0x400] 
            105   0  Directory                GetM    M_m>M_m    [0x400, line 0x400] 
            105   0  Directory                GetM    M_m>M_m    [0x400, line 0x400] 
            105   0  Directory                GetM    M_m>M_m    [0x400, line 0x400] 
            105   0  Directory                GetM    M_m>M_m    [0x400, line 0x400] 
            105   0  Directory                GetM    M_m>M_m    [0x400, line 0x400] 
            105   0  Directory                GetM    M_m>M_m    [0x400, line 0x400] 
            105   0  Directory                GetM    M_m>M_m    [0x400, line 0x400] 
            105   0  Directory                GetM    M_m>M_m    [0x400, line 0x400] 
            105   0  Directory                GetM    M_m>M_m    [0x400, line 0x400] 
            106   0  Directory                GetM    M_m>M_m    [0x400, line 0x400] 
            106   0  Directory                GetM    M_m>M_m    [0x400, line 0x400] 
            106   0  Directory                GetM    M_m>M_m    [0x400, line 0x400] 
            106   0  Directory                GetM    M_m>M_m    [0x400, line 0x400] 
            106   0  Directory                GetM    M_m>M_m    [0x400, line 0x400] 
            106   0  Directory                GetM    M_m>M_m    [0x400, line 0x400] 
            106   0  Directory                GetM    M_m>M_m    [0x400, line 0x400] 
            106   0  Directory                GetM    M_m>M_m    [0x400, line 0x400] 
            106   0  Directory                GetM    M_m>M_m    [0x400, line 0x400] 
            106   0  Directory                GetM    M_m>M_m    [0x400, line 0x400] 
            106   0  Directory                GetM    M_m>M_m    [0x400, line 0x400] 
            106   0  Directory                GetM    M_m>M_m    [0x400, line 0x400] 
            106   0  Directory                GetM    M_m>M_m    [0x400, line 0x400] 
            106   0  Directory                GetM    M_m>M_m    [0x400, line 0x400] 
            106   0  Directory                GetM    M_m>M_m    [0x400, line 0x400] 
            106   0  Directory                GetM    M_m>M_m    [0x400, line 0x400] 
            106   0  Directory                GetM    M_m>M_m    [0x400, line 0x400] 
            106   0  Directory                GetM    M_m>M_m    [0x400, line 0x400] 
            106   0  Directory                GetM    M_m>M_m    [0x400, line 0x400] 
            106   0  Directory                GetM    M_m>M_m    [0x400, line 0x400] 
            106   0  Directory                GetM    M_m>M_m    [0x400, line 0x400] 
            106   0  Directory                GetM    M_m>M_m    [0x400, line 0x400] 
            106   0  Directory                GetM    M_m>M_m    [0x400, line 0x400] 
            106   0  Directory                GetM    M_m>M_m    [0x400, line 0x400] 
            106   0  Directory                GetM    M_m>M_m    [0x400, line 0x400] 
            106   0  Directory                GetM    M_m>M_m    [0x400, line 0x400] 
            106   0  Directory                GetM    M_m>M_m    [0x400, line 0x400] 
            106   0  Directory                GetM    M_m>M_m    [0x400, line 0x400] 
            106   0  Directory                GetM    M_m>M_m    [0x400, line 0x400] 
            106   0  Directory                GetM    M_m>M_m    [0x400, line 0x400] 
            106   0  Directory                GetM    M_m>M_m    [0x400, line 0x400] 
            106   0  Directory                GetM    M_m>M_m    [0x400, line 0x400] 
            107   0  Directory                GetM    M_m>M_m    [0x400, line 0x400] 
            107   0  Directory                GetM    M_m>M_m    [0x400, line 0x400] 
            107   0  Directory                GetM    M_m>M_m    [0x400, line 0x400] 
            107   0  Directory                GetM    M_m>M_m    [0x400, line 0x400] 
            107   0  Directory                GetM    M_m>M_m    [0x400, line 0x400] 
            107   0  Directory                GetM    M_m>M_m    [0x400, line 0x400] 
            107   0  Directory                GetM    M_m>M_m    [0x400, line 0x400] 
            107   0  Directory                GetM    M_m>M_m    [0x400, line 0x400] 
            107   0  Directory                GetM    M_m>M_m    [0x400, line 0x400] 
            107   0  Directory                GetM    M_m>M_m    [0x400, line 0x400] 
            107   0  Directory                GetM    M_m>M_m    [0x400, line 0x400] 
            107   0  Directory                GetM    M_m>M_m    [0x400, line 0x400] 
            107   0  Directory                GetM    M_m>M_m    [0x400, line 0x400] 
            107   0  Directory                GetM    M_m>M_m    [0x400, line 0x400] 
            107   0  Directory                GetM    M_m>M_m    [0x400, line 0x400] 
            107   0  Directory                GetM    M_m>M_m    [0x400, line 0x400] 
            107   0  Directory                GetM    M_m>M_m    [0x400, line 0x400] 
            107   0  Directory                GetM    M_m>M_m    [0x400, line 0x400] 
            107   0  Directory                GetM    M_m>M_m    [0x400, line 0x400] 
            107   0  Directory                GetM    M_m>M_m    [0x400, line 0x400] 
            107   0  Directory                GetM    M_m>M_m    [0x400, line 0x400] 
            107   0  Directory                GetM    M_m>M_m    [0x400, line 0x400] 
            107   0  Directory                GetM    M_m>M_m    [0x400, line 0x400] 
            107   0  Directory                GetM    M_m>M_m    [0x400, line 0x400] 
            107   0  Directory                GetM    M_m>M_m    [0x400, line 0x400] 
            107   0  Directory                GetM    M_m>M_m    [0x400, line 0x400] 
            107   0  Directory                GetM    M_m>M_m    [0x400, line 0x400] 
            107   0  Directory                GetM    M_m>M_m    [0x400, line 0x400] 
            107   0  Directory                GetM    M_m>M_m    [0x400, line 0x400] 
            107   0  Directory                GetM    M_m>M_m    [0x400, line 0x400] 
            107   0  Directory                GetM    M_m>M_m    [0x400, line 0x400] 
            107   0  Directory                GetM    M_m>M_m    [0x400, line 0x400] 
            108   0  Directory                GetM    M_m>M_m    [0x400, line 0x400] 
            108   0  Directory                GetM    M_m>M_m    [0x400, line 0x400] 
            108   0  Directory                GetM    M_m>M_m    [0x400, line 0x400] 
            108   0  Directory                GetM    M_m>M_m    [0x400, line 0x400] 
            108   0  Directory                GetM    M_m>M_m    [0x400, line 0x400] 
            108   0  Directory                GetM    M_m>M_m    [0x400, line 0x400] 
            108   0  Directory                GetM    M_m>M_m    [0x400, line 0x400] 
            108   0  Directory                GetM    M_m>M_m    [0x400, line 0x400] 
            108   0  Directory                GetM    M_m>M_m    [0x400, line 0x400] 
            108   0  Directory                GetM    M_m>M_m    [0x400, line 0x400] 
            108   0  Directory                GetM    M_m>M_m    [0x400, line 0x400] 
            108   0  Directory                GetM    M_m>M_m    [0x400, line 0x400] 
            108   0  Directory                GetM    M_m>M_m    [0x400, line 0x400] 
            108   0  Directory                GetM    M_m>M_m    [0x400, line 0x400] 
            108   0  Directory                GetM    M_m>M_m    [0x400, line 0x400] 
            108   0  Directory                GetM    M_m>M_m    [0x400, line 0x400] 
            108   0  Directory                GetM    M_m>M_m    [0x400, line 0x400] 
            108   0  Directory                GetM    M_m>M_m    [0x400, line 0x400] 
            108   0  Directory                GetM    M_m>M_m    [0x400, line 0x400] 
            108   0  Directory                GetM    M_m>M_m    [0x400, line 0x400] 
            108   0  Directory                GetM    M_m>M_m    [0x400, line 0x400] 
            108   0  Directory                GetM    M_m>M_m    [0x400, line 0x400] 
            108   0  Directory                GetM    M_m>M_m    [0x400, line 0x400] 
            108   0  Directory                GetM    M_m>M_m    [0x400, line 0x400] 
            108   0  Directory                GetM    M_m>M_m    [0x400, line 0x400] 
            108   0  Directory                GetM    M_m>M_m    [0x400, line 0x400] 
            108   0  Directory                GetM    M_m>M_m    [0x400, line 0x400] 
            108   0  Directory                GetM    M_m>M_m    [0x400, line 0x400] 
            108   0  Directory                GetM    M_m>M_m    [0x400, line 0x400] 
            108   0  Directory                GetM    M_m>M_m    [0x400, line 0x400] 
            108   0  Directory                GetM    M_m>M_m    [0x400, line 0x400] 
            108   0  Directory                GetM    M_m>M_m    [0x400, line 0x400] 
            109   0  Directory             MemData    M_m>M      [0x3bc0, line 0x3bc0] 
            109   0  Directory                GetM    M_m>M_m    [0x400, line 0x400] 
            109   0  Directory                GetM    M_m>M_m    [0x400, line 0x400] 
            109   0  Directory                GetM    M_m>M_m    [0x400, line 0x400] 
            109   0  Directory                GetM    M_m>M_m    [0x400, line 0x400] 
            109   0  Directory                GetM    M_m>M_m    [0x400, line 0x400] 
            109   0  Directory                GetM    M_m>M_m    [0x400, line 0x400] 
            109   0  Directory                GetM    M_m>M_m    [0x400, line 0x400] 
            109   0  Directory                GetM    M_m>M_m    [0x400, line 0x400] 
            109   0  Directory                GetM    M_m>M_m    [0x400, line 0x400] 
            109   0  Directory                GetM    M_m>M_m    [0x400, line 0x400] 
            109   0  Directory                GetM    M_m>M_m    [0x400, line 0x400] 
            109   0  Directory                GetM    M_m>M_m    [0x400, line 0x400] 
            109   0  Directory                GetM    M_m>M_m    [0x400, line 0x400] 
            109   0  Directory                GetM    M_m>M_m    [0x400, line 0x400] 
            109   0  Directory                GetM    M_m>M_m    [0x400, line 0x400] 
            109   0  Directory                GetM    M_m>M_m    [0x400, line 0x400] 
            109   0  Directory                GetM    M_m>M_m    [0x400, line 0x400] 
            109   0  Directory                GetM    M_m>M_m    [0x400, line 0x400] 
            109   0  Directory                GetM    M_m>M_m    [0x400, line 0x400] 
            109   0  Directory                GetM    M_m>M_m    [0x400, line 0x400] 
            109   0  Directory                GetM    M_m>M_m    [0x400, line 0x400] 
            109   0  Directory                GetM    M_m>M_m    [0x400, line 0x400] 
            109   0  Directory                GetM    M_m>M_m    [0x400, line 0x400] 
            109   0  Directory                GetM    M_m>M_m    [0x400, line 0x400] 
            109   0  Directory                GetM    M_m>M_m    [0x400, line 0x400] 
            109   0  Directory                GetM    M_m>M_m    [0x400, line 0x400] 
            109   0  Directory                GetM    M_m>M_m    [0x400, line 0x400] 
            109   0  Directory                GetM    M_m>M_m    [0x400, line 0x400] 
            109   0  Directory                GetM    M_m>M_m    [0x400, line 0x400] 
            109   0  Directory                GetM    M_m>M_m    [0x400, line 0x400] 
            109   0  Directory                GetM    M_m>M_m    [0x400, line 0x400] 
            110   0  Directory                GetM    M_m>M_m    [0x400, line 0x400] 
            110   0  Directory                GetM    M_m>M_m    [0x400, line 0x400] 
            110   0  Directory                GetM    M_m>M_m    [0x400, line 0x400] 
            110   0  Directory                GetM    M_m>M_m    [0x400, line 0x400] 
            110   0  Directory                GetM    M_m>M_m    [0x400, line 0x400] 
            110   0  Directory                GetM    M_m>M_m    [0x400, line 0x400] 
            110   0  Directory                GetM    M_m>M_m    [0x400, line 0x400] 
            110   0  Directory                GetM    M_m>M_m    [0x400, line 0x400] 
            110   0  Directory                GetM    M_m>M_m    [0x400, line 0x400] 
            110   0  Directory                GetM    M_m>M_m    [0x400, line 0x400] 
            110   0  Directory                GetM    M_m>M_m    [0x400, line 0x400] 
            110   0  Directory                GetM    M_m>M_m    [0x400, line 0x400] 
            110   0  Directory                GetM    M_m>M_m    [0x400, line 0x400] 
            110   0  Directory                GetM    M_m>M_m    [0x400, line 0x400] 
            110   0  Directory                GetM    M_m>M_m    [0x400, line 0x400] 
            110   0  Directory                GetM    M_m>M_m    [0x400, line 0x400] 
            110   0  Directory                GetM    M_m>M_m    [0x400, line 0x400] 
            110   0  Directory                GetM    M_m>M_m    [0x400, line 0x400] 
            110   0  Directory                GetM    M_m>M_m    [0x400, line 0x400] 
            110   0  Directory                GetM    M_m>M_m    [0x400, line 0x400] 
            110   0  Directory                GetM    M_m>M_m    [0x400, line 0x400] 
            110   0  Directory                GetM    M_m>M_m    [0x400, line 0x400] 
            110   0  Directory                GetM    M_m>M_m    [0x400, line 0x400] 
            110   0  Directory                GetM    M_m>M_m    [0x400, line 0x400] 
            110   0  Directory                GetM    M_m>M_m    [0x400, line 0x400] 
            110   0  Directory                GetM    M_m>M_m    [0x400, line 0x400] 
            110   0  Directory                GetM    M_m>M_m    [0x400, line 0x400] 
            110   0  Directory                GetM    M_m>M_m    [0x400, line 0x400] 
            110   0  Directory                GetM    M_m>M_m    [0x400, line 0x400] 
            110   0  Directory                GetM    M_m>M_m    [0x400, line 0x400] 
            110   0  Directory                GetM    M_m>M_m    [0x400, line 0x400] 
            110   0  Directory                GetM    M_m>M_m    [0x400, line 0x400] 
            111   0  Directory                GetM    M_m>M_m    [0x400, line 0x400] 
            111   0  Directory                GetM    M_m>M_m    [0x400, line 0x400] 
            111   0  Directory                GetM    M_m>M_m    [0x400, line 0x400] 
            111   0  Directory                GetM    M_m>M_m    [0x400, line 0x400] 
            111   0  Directory                GetM    M_m>M_m    [0x400, line 0x400] 
            111   0  Directory                GetM    M_m>M_m    [0x400, line 0x400] 
            111   0  Directory                GetM    M_m>M_m    [0x400, line 0x400] 
            111   0  Directory                GetM    M_m>M_m    [0x400, line 0x400] 
            111   0  Directory                GetM    M_m>M_m    [0x400, line 0x400] 
            111   0  Directory                GetM    M_m>M_m    [0x400, line 0x400] 
            111   0  Directory                GetM    M_m>M_m    [0x400, line 0x400] 
            111   0  Directory                GetM    M_m>M_m    [0x400, line 0x400] 
            111   0  Directory                GetM    M_m>M_m    [0x400, line 0x400] 
            111   0  Directory                GetM    M_m>M_m    [0x400, line 0x400] 
            111   0  Directory                GetM    M_m>M_m    [0x400, line 0x400] 
            111   0  Directory                GetM    M_m>M_m    [0x400, line 0x400] 
            111   0  Directory                GetM    M_m>M_m    [0x400, line 0x400] 
            111   0  Directory                GetM    M_m>M_m    [0x400, line 0x400] 
            111   0  Directory                GetM    M_m>M_m    [0x400, line 0x400] 
            111   0  Directory                GetM    M_m>M_m    [0x400, line 0x400] 
            111   0  Directory                GetM    M_m>M_m    [0x400, line 0x400] 
            111   0  Directory                GetM    M_m>M_m    [0x400, line 0x400] 
            111   0  Directory                GetM    M_m>M_m    [0x400, line 0x400] 
            111   0  Directory                GetM    M_m>M_m    [0x400, line 0x400] 
            111   0  Directory                GetM    M_m>M_m    [0x400, line 0x400] 
            111   0  Directory                GetM    M_m>M_m    [0x400, line 0x400] 
            111   0  Directory                GetM    M_m>M_m    [0x400, line 0x400] 
            111   0  Directory                GetM    M_m>M_m    [0x400, line 0x400] 
            111   0  Directory                GetM    M_m>M_m    [0x400, line 0x400] 
            111   0  Directory                GetM    M_m>M_m    [0x400, line 0x400] 
            111   0  Directory                GetM    M_m>M_m    [0x400, line 0x400] 
            111   0  Directory                GetM    M_m>M_m    [0x400, line 0x400] 
            111   1        Seq               Begin       >       [0xae8, line 0xac0] ST
            112   1    L1Cache               Store      I>IM_S   [0xac0, line 0xac0] 
            112   0  Directory                GetM    M_m>M_m    [0x400, line 0x400] 
            112   0  Directory                GetM    M_m>M_m    [0x400, line 0x400] 
            112   0  Directory                GetM    M_m>M_m    [0x400, line 0x400] 
            112   0  Directory                GetM    M_m>M_m    [0x400, line 0x400] 
            112   0  Directory                GetM    M_m>M_m    [0x400, line 0x400] 
            112   0  Directory                GetM    M_m>M_m    [0x400, line 0x400] 
            112   0  Directory                GetM    M_m>M_m    [0x400, line 0x400] 
            112   0  Directory                GetM    M_m>M_m    [0x400, line 0x400] 
            112   0  Directory                GetM    M_m>M_m    [0x400, line 0x400] 
            112   0  Directory                GetM    M_m>M_m    [0x400, line 0x400] 
            112   0  Directory                GetM    M_m>M_m    [0x400, line 0x400] 
            112   0  Directory                GetM    M_m>M_m    [0x400, line 0x400] 
            112   0  Directory                GetM    M_m>M_m    [0x400, line 0x400] 
            112   0  Directory                GetM    M_m>M_m    [0x400, line 0x400] 
            112   0  Directory                GetM    M_m>M_m    [0x400, line 0x400] 
            112   0  Directory                GetM    M_m>M_m    [0x400, line 0x400] 
            112   0  Directory                GetM    M_m>M_m    [0x400, line 0x400] 
            112   0  Directory                GetM    M_m>M_m    [0x400, line 0x400] 
            112   0  Directory                GetM    M_m>M_m    [0x400, line 0x400] 
            112   0  Directory                GetM    M_m>M_m    [0x400, line 0x400] 
            112   0  Directory                GetM    M_m>M_m    [0x400, line 0x400] 
            112   0  Directory                GetM    M_m>M_m    [0x400, line 0x400] 
            112   0  Directory                GetM    M_m>M_m    [0x400, line 0x400] 
            112   0  Directory                GetM    M_m>M_m    [0x400, line 0x400] 
            112   0  Directory                GetM    M_m>M_m    [0x400, line 0x400] 
            112   0  Directory                GetM    M_m>M_m    [0x400, line 0x400] 
            112   0  Directory                GetM    M_m>M_m    [0x400, line 0x400] 
            112   0  Directory                GetM    M_m>M_m    [0x400, line 0x400] 
            112   0  Directory                GetM    M_m>M_m    [0x400, line 0x400] 
            112   0  Directory                GetM    M_m>M_m    [0x400, line 0x400] 
            112   0  Directory                GetM    M_m>M_m    [0x400, line 0x400] 
            112   0  Directory                GetM    M_m>M_m    [0x400, line 0x400] 
            113   0  Directory                GetM    M_m>M_m    [0x400, line 0x400] 
            113   0  Directory                GetM    M_m>M_m    [0x400, line 0x400] 
            113   0  Directory                GetM    M_m>M_m    [0x400, line 0x400] 
            113   0  Directory                GetM    M_m>M_m    [0x400, line 0x400] 
            113   0  Directory                GetM    M_m>M_m    [0x400, line 0x400] 
            113   0  Directory                GetM    M_m>M_m    [0x400, line 0x400] 
            113   0  Directory                GetM    M_m>M_m    [0x400, line 0x400] 
            113   0  Directory                GetM    M_m>M_m    [0x400, line 0x400] 
            113   0  Directory                GetM    M_m>M_m    [0x400, line 0x400] 
            113   0  Directory                GetM    M_m>M_m    [0x400, line 0x400] 
            113   0  Directory                GetM    M_m>M_m    [0x400, line 0x400] 
            113   0  Directory                GetM    M_m>M_m    [0x400, line 0x400] 
            113   0  Directory                GetM    M_m>M_m    [0x400, line 0x400] 
            113   0  Directory                GetM    M_m>M_m    [0x400, line 0x400] 
            113   0  Directory                GetM    M_m>M_m    [0x400, line 0x400] 
            113   0  Directory                GetM    M_m>M_m    [0x400, line 0x400] 
            113   0  Directory                GetM    M_m>M_m    [0x400, line 0x400] 
            113   0  Directory                GetM    M_m>M_m    [0x400, line 0x400] 
            113   0  Directory                GetM    M_m>M_m    [0x400, line 0x400] 
            113   0  Directory                GetM    M_m>M_m    [0x400, line 0x400] 
            113   0  Directory                GetM    M_m>M_m    [0x400, line 0x400] 
            113   0  Directory                GetM    M_m>M_m    [0x400, line 0x400] 
            113   0  Directory                GetM    M_m>M_m    [0x400, line 0x400] 
            113   0  Directory                GetM    M_m>M_m    [0x400, line 0x400] 
            113   0  Directory                GetM    M_m>M_m    [0x400, line 0x400] 
            113   0  Directory                GetM    M_m>M_m    [0x400, line 0x400] 
            113   0  Directory                GetM    M_m>M_m    [0x400, line 0x400] 
            113   0  Directory                GetM    M_m>M_m    [0x400, line 0x400] 
            113   0  Directory                GetM    M_m>M_m    [0x400, line 0x400] 
            113   0  Directory                GetM    M_m>M_m    [0x400, line 0x400] 
            113   0  Directory                GetM    M_m>M_m    [0x400, line 0x400] 
            113   0  Directory                GetM    M_m>M_m    [0x400, line 0x400] 
            114   0  Directory                GetM    M_m>M_m    [0x400, line 0x400] 
            114   0  Directory                GetM    M_m>M_m    [0x400, line 0x400] 
            114   0  Directory                GetM    M_m>M_m    [0x400, line 0x400] 
            114   0  Directory                GetM    M_m>M_m    [0x400, line 0x400] 
            114   0  Directory                GetM    M_m>M_m    [0x400, line 0x400] 
            114   0  Directory                GetM    M_m>M_m    [0x400, line 0x400] 
            114   0  Directory                GetM    M_m>M_m    [0x400, line 0x400] 
            114   0  Directory                GetM    M_m>M_m    [0x400, line 0x400] 
            114   0  Directory                GetM    M_m>M_m    [0x400, line 0x400] 
            114   0  Directory                GetM    M_m>M_m    [0x400, line 0x400] 
            114   0  Directory                GetM    M_m>M_m    [0x400, line 0x400] 
            114   0  Directory                GetM    M_m>M_m    [0x400, line 0x400] 
            114   0  Directory                GetM    M_m>M_m    [0x400, line 0x400] 
            114   0  Directory                GetM    M_m>M_m    [0x400, line 0x400] 
            114   0  Directory                GetM    M_m>M_m    [0x400, line 0x400] 
            114   0  Directory                GetM    M_m>M_m    [0x400, line 0x400] 
            114   0  Directory                GetM    M_m>M_m    [0x400, line 0x400] 
            114   0  Directory                GetM    M_m>M_m    [0x400, line 0x400] 
            114   0  Directory                GetM    M_m>M_m    [0x400, line 0x400] 
            114   0  Directory                GetM    M_m>M_m    [0x400, line 0x400] 
            114   0  Directory                GetM    M_m>M_m    [0x400, line 0x400] 
            114   0  Directory                GetM    M_m>M_m    [0x400, line 0x400] 
            114   0  Directory                GetM    M_m>M_m    [0x400, line 0x400] 
            114   0  Directory                GetM    M_m>M_m    [0x400, line 0x400] 
            114   0  Directory                GetM    M_m>M_m    [0x400, line 0x400] 
            114   0  Directory                GetM    M_m>M_m    [0x400, line 0x400] 
            114   0  Directory                GetM    M_m>M_m    [0x400, line 0x400] 
            114   0  Directory                GetM    M_m>M_m    [0x400, line 0x400] 
            114   0  Directory                GetM    M_m>M_m    [0x400, line 0x400] 
            114   0  Directory                GetM    M_m>M_m    [0x400, line 0x400] 
            114   0  Directory                GetM    M_m>M_m    [0x400, line 0x400] 
            114   0  Directory                GetM    M_m>M_m    [0x400, line 0x400] 
            114   1        Seq                Done       >       [0x3bec, line 0x3bc0] 0 cycles
            114   1    L1Cache             DataDir   IM_S>M      [0x3bc0, line 0x3bc0] 
            115   0  Directory                GetM    M_m>M_m    [0x400, line 0x400] 
            115   0  Directory                GetM    M_m>M_m    [0x400, line 0x400] 
            115   0  Directory                GetM    M_m>M_m    [0x400, line 0x400] 
            115   0  Directory                GetM    M_m>M_m    [0x400, line 0x400] 
            115   0  Directory                GetM    M_m>M_m    [0x400, line 0x400] 
            115   0  Directory                GetM    M_m>M_m    [0x400, line 0x400] 
            115   0  Directory                GetM    M_m>M_m    [0x400, line 0x400] 
            115   0  Directory                GetM    M_m>M_m    [0x400, line 0x400] 
            115   0  Directory                GetM    M_m>M_m    [0x400, line 0x400] 
            115   0  Directory                GetM    M_m>M_m    [0x400, line 0x400] 
            115   0  Directory                GetM    M_m>M_m    [0x400, line 0x400] 
            115   0  Directory                GetM    M_m>M_m    [0x400, line 0x400] 
            115   0  Directory                GetM    M_m>M_m    [0x400, line 0x400] 
            115   0  Directory                GetM    M_m>M_m    [0x400, line 0x400] 
            115   0  Directory                GetM    M_m>M_m    [0x400, line 0x400] 
            115   0  Directory                GetM    M_m>M_m    [0x400, line 0x400] 
            115   0  Directory                GetM    M_m>M_m    [0x400, line 0x400] 
            115   0  Directory                GetM    M_m>M_m    [0x400, line 0x400] 
            115   0  Directory                GetM    M_m>M_m    [0x400, line 0x400] 
            115   0  Directory                GetM    M_m>M_m    [0x400, line 0x400] 
            115   0  Directory                GetM    M_m>M_m    [0x400, line 0x400] 
            115   0  Directory                GetM    M_m>M_m    [0x400, line 0x400] 
            115   0  Directory                GetM    M_m>M_m    [0x400, line 0x400] 
            115   0  Directory                GetM    M_m>M_m    [0x400, line 0x400] 
            115   0  Directory                GetM    M_m>M_m    [0x400, line 0x400] 
            115   0  Directory                GetM    M_m>M_m    [0x400, line 0x400] 
            115   0  Directory                GetM    M_m>M_m    [0x400, line 0x400] 
            115   0  Directory                GetM    M_m>M_m    [0x400, line 0x400] 
            115   0  Directory                GetM    M_m>M_m    [0x400, line 0x400] 
            115   0  Directory                GetM    M_m>M_m    [0x400, line 0x400] 
            115   0  Directory                GetM    M_m>M_m    [0x400, line 0x400] 
            115   0  Directory                GetM    M_m>M_m    [0x400, line 0x400] 
            116   0  Directory                GetM    M_m>M_m    [0x400, line 0x400] 
            116   0  Directory                GetM    M_m>M_m    [0x400, line 0x400] 
            116   0  Directory                GetM    M_m>M_m    [0x400, line 0x400] 
            116   0  Directory                GetM    M_m>M_m    [0x400, line 0x400] 
            116   0  Directory                GetM    M_m>M_m    [0x400, line 0x400] 
            116   0  Directory                GetM    M_m>M_m    [0x400, line 0x400] 
            116   0  Directory                GetM    M_m>M_m    [0x400, line 0x400] 
            116   0  Directory                GetM    M_m>M_m    [0x400, line 0x400] 
            116   0  Directory                GetM    M_m>M_m    [0x400, line 0x400] 
            116   0  Directory                GetM    M_m>M_m    [0x400, line 0x400] 
            116   0  Directory                GetM    M_m>M_m    [0x400, line 0x400] 
            116   0  Directory                GetM    M_m>M_m    [0x400, line 0x400] 
            116   0  Directory                GetM    M_m>M_m    [0x400, line 0x400] 
            116   0  Directory                GetM    M_m>M_m    [0x400, line 0x400] 
            116   0  Directory                GetM    M_m>M_m    [0x400, line 0x400] 
            116   0  Directory                GetM    M_m>M_m    [0x400, line 0x400] 
            116   0  Directory                GetM    M_m>M_m    [0x400, line 0x400] 
            116   0  Directory                GetM    M_m>M_m    [0x400, line 0x400] 
            116   0  Directory                GetM    M_m>M_m    [0x400, line 0x400] 
            116   0  Directory                GetM    M_m>M_m    [0x400, line 0x400] 
            116   0  Directory                GetM    M_m>M_m    [0x400, line 0x400] 
            116   0  Directory                GetM    M_m>M_m    [0x400, line 0x400] 
            116   0  Directory                GetM    M_m>M_m    [0x400, line 0x400] 
            116   0  Directory                GetM    M_m>M_m    [0x400, line 0x400] 
            116   0  Directory                GetM    M_m>M_m    [0x400, line 0x400] 
            116   0  Directory                GetM    M_m>M_m    [0x400, line 0x400] 
            116   0  Directory                GetM    M_m>M_m    [0x400, line 0x400] 
            116   0  Directory                GetM    M_m>M_m    [0x400, line 0x400] 
            116   0  Directory                GetM    M_m>M_m    [0x400, line 0x400] 
            116   0  Directory                GetM    M_m>M_m    [0x400, line 0x400] 
            116   0  Directory                GetM    M_m>M_m    [0x400, line 0x400] 
            116   0  Directory                GetM    M_m>M_m    [0x400, line 0x400] 
            117   0  Directory                GetM    M_m>M_m    [0x400, line 0x400] 
            117   0  Directory                GetM    M_m>M_m    [0x400, line 0x400] 
            117   0  Directory                GetM    M_m>M_m    [0x400, line 0x400] 
            117   0  Directory                GetM    M_m>M_m    [0x400, line 0x400] 
            117   0  Directory                GetM    M_m>M_m    [0x400, line 0x400] 
            117   0  Directory                GetM    M_m>M_m    [0x400, line 0x400] 
            117   0  Directory                GetM    M_m>M_m    [0x400, line 0x400] 
            117   0  Directory                GetM    M_m>M_m    [0x400, line 0x400] 
            117   0  Directory                GetM    M_m>M_m    [0x400, line 0x400] 
            117   0  Directory                GetM    M_m>M_m    [0x400, line 0x400] 
            117   0  Directory                GetM    M_m>M_m    [0x400, line 0x400] 
            117   0  Directory                GetM    M_m>M_m    [0x400, line 0x400] 
            117   0  Directory                GetM    M_m>M_m    [0x400, line 0x400] 
            117   0  Directory                GetM    M_m>M_m    [0x400, line 0x400] 
            117   0  Directory                GetM    M_m>M_m    [0x400, line 0x400] 
            117   0  Directory                GetM    M_m>M_m    [0x400, line 0x400] 
            117   0  Directory                GetM    M_m>M_m    [0x400, line 0x400] 
            117   0  Directory                GetM    M_m>M_m    [0x400, line 0x400] 
            117   0  Directory                GetM    M_m>M_m    [0x400, line 0x400] 
            117   0  Directory                GetM    M_m>M_m    [0x400, line 0x400] 
            117   0  Directory                GetM    M_m>M_m    [0x400, line 0x400] 
            117   0  Directory                GetM    M_m>M_m    [0x400, line 0x400] 
            117   0  Directory                GetM    M_m>M_m    [0x400, line 0x400] 
            117   0  Directory                GetM    M_m>M_m    [0x400, line 0x400] 
            117   0  Directory                GetM    M_m>M_m    [0x400, line 0x400] 
            117   0  Directory                GetM    M_m>M_m    [0x400, line 0x400] 
            117   0  Directory                GetM    M_m>M_m    [0x400, line 0x400] 
            117   0  Directory                GetM    M_m>M_m    [0x400, line 0x400] 
            117   0  Directory                GetM    M_m>M_m    [0x400, line 0x400] 
            117   0  Directory                GetM    M_m>M_m    [0x400, line 0x400] 
            117   0  Directory                GetM    M_m>M_m    [0x400, line 0x400] 
            117   0  Directory                GetM    M_m>M_m    [0x400, line 0x400] 
            118   0  Directory                GetM    M_m>M_m    [0x400, line 0x400] 
            118   0  Directory                GetM    M_m>M_m    [0x400, line 0x400] 
            118   0  Directory                GetM    M_m>M_m    [0x400, line 0x400] 
            118   0  Directory                GetM    M_m>M_m    [0x400, line 0x400] 
            118   0  Directory                GetM    M_m>M_m    [0x400, line 0x400] 
            118   0  Directory                GetM    M_m>M_m    [0x400, line 0x400] 
            118   0  Directory                GetM    M_m>M_m    [0x400, line 0x400] 
            118   0  Directory                GetM    M_m>M_m    [0x400, line 0x400] 
            118   0  Directory                GetM    M_m>M_m    [0x400, line 0x400] 
            118   0  Directory                GetM    M_m>M_m    [0x400, line 0x400] 
            118   0  Directory                GetM    M_m>M_m    [0x400, line 0x400] 
            118   0  Directory                GetM    M_m>M_m    [0x400, line 0x400] 
            118   0  Directory                GetM    M_m>M_m    [0x400, line 0x400] 
            118   0  Directory                GetM    M_m>M_m    [0x400, line 0x400] 
            118   0  Directory                GetM    M_m>M_m    [0x400, line 0x400] 
            118   0  Directory                GetM    M_m>M_m    [0x400, line 0x400] 
            118   0  Directory                GetM    M_m>M_m    [0x400, line 0x400] 
            118   0  Directory                GetM    M_m>M_m    [0x400, line 0x400] 
            118   0  Directory                GetM    M_m>M_m    [0x400, line 0x400] 
            118   0  Directory                GetM    M_m>M_m    [0x400, line 0x400] 
            118   0  Directory                GetM    M_m>M_m    [0x400, line 0x400] 
            118   0  Directory                GetM    M_m>M_m    [0x400, line 0x400] 
            118   0  Directory                GetM    M_m>M_m    [0x400, line 0x400] 
            118   0  Directory                GetM    M_m>M_m    [0x400, line 0x400] 
            118   0  Directory                GetM    M_m>M_m    [0x400, line 0x400] 
            118   0  Directory                GetM    M_m>M_m    [0x400, line 0x400] 
            118   0  Directory                GetM    M_m>M_m    [0x400, line 0x400] 
            118   0  Directory                GetM    M_m>M_m    [0x400, line 0x400] 
            118   0  Directory                GetM    M_m>M_m    [0x400, line 0x400] 
            118   0  Directory                GetM    M_m>M_m    [0x400, line 0x400] 
            118   0  Directory                GetM    M_m>M_m    [0x400, line 0x400] 
            118   0  Directory                GetM    M_m>M_m    [0x400, line 0x400] 
            119   0  Directory             MemData    M_m>M      [0x58c0, line 0x58c0] 
            119   0  Directory                GetM    M_m>M_m    [0x400, line 0x400] 
            119   0  Directory                GetM    M_m>M_m    [0x400, line 0x400] 
            119   0  Directory                GetM    M_m>M_m    [0x400, line 0x400] 
            119   0  Directory                GetM    M_m>M_m    [0x400, line 0x400] 
            119   0  Directory                GetM    M_m>M_m    [0x400, line 0x400] 
            119   0  Directory                GetM    M_m>M_m    [0x400, line 0x400] 
            119   0  Directory                GetM    M_m>M_m    [0x400, line 0x400] 
            119   0  Directory                GetM    M_m>M_m    [0x400, line 0x400] 
            119   0  Directory                GetM    M_m>M_m    [0x400, line 0x400] 
            119   0  Directory                GetM    M_m>M_m    [0x400, line 0x400] 
            119   0  Directory                GetM    M_m>M_m    [0x400, line 0x400] 
            119   0  Directory                GetM    M_m>M_m    [0x400, line 0x400] 
            119   0  Directory                GetM    M_m>M_m    [0x400, line 0x400] 
            119   0  Directory                GetM    M_m>M_m    [0x400, line 0x400] 
            119   0  Directory                GetM    M_m>M_m    [0x400, line 0x400] 
            119   0  Directory                GetM    M_m>M_m    [0x400, line 0x400] 
            119   0  Directory                GetM    M_m>M_m    [0x400, line 0x400] 
            119   0  Directory                GetM    M_m>M_m    [0x400, line 0x400] 
            119   0  Directory                GetM    M_m>M_m    [0x400, line 0x400] 
            119   0  Directory                GetM    M_m>M_m    [0x400, line 0x400] 
            119   0  Directory                GetM    M_m>M_m    [0x400, line 0x400] 
            119   0  Directory                GetM    M_m>M_m    [0x400, line 0x400] 
            119   0  Directory                GetM    M_m>M_m    [0x400, line 0x400] 
            119   0  Directory                GetM    M_m>M_m    [0x400, line 0x400] 
            119   0  Directory                GetM    M_m>M_m    [0x400, line 0x400] 
            119   0  Directory                GetM    M_m>M_m    [0x400, line 0x400] 
            119   0  Directory                GetM    M_m>M_m    [0x400, line 0x400] 
            119   0  Directory                GetM    M_m>M_m    [0x400, line 0x400] 
            119   0  Directory                GetM    M_m>M_m    [0x400, line 0x400] 
            119   0  Directory                GetM    M_m>M_m    [0x400, line 0x400] 
            119   0  Directory                GetM    M_m>M_m    [0x400, line 0x400] 
            120   0  Directory                GetM    M_m>M_m    [0x400, line 0x400] 
            120   0  Directory                GetM    M_m>M_m    [0x400, line 0x400] 
            120   0  Directory                GetM    M_m>M_m    [0x400, line 0x400] 
            120   0  Directory                GetM    M_m>M_m    [0x400, line 0x400] 
            120   0  Directory                GetM    M_m>M_m    [0x400, line 0x400] 
            120   0  Directory                GetM    M_m>M_m    [0x400, line 0x400] 
            120   0  Directory                GetM    M_m>M_m    [0x400, line 0x400] 
            120   0  Directory                GetM    M_m>M_m    [0x400, line 0x400] 
            120   0  Directory                GetM    M_m>M_m    [0x400, line 0x400] 
            120   0  Directory                GetM    M_m>M_m    [0x400, line 0x400] 
            120   0  Directory                GetM    M_m>M_m    [0x400, line 0x400] 
            120   0  Directory                GetM    M_m>M_m    [0x400, line 0x400] 
            120   0  Directory                GetM    M_m>M_m    [0x400, line 0x400] 
            120   0  Directory                GetM    M_m>M_m    [0x400, line 0x400] 
            120   0  Directory                GetM    M_m>M_m    [0x400, line 0x400] 
            120   0  Directory                GetM    M_m>M_m    [0x400, line 0x400] 
            120   0  Directory                GetM    M_m>M_m    [0x400, line 0x400] 
            120   0  Directory                GetM    M_m>M_m    [0x400, line 0x400] 
            120   0  Directory                GetM    M_m>M_m    [0x400, line 0x400] 
            120   0  Directory                GetM    M_m>M_m    [0x400, line 0x400] 
            120   0  Directory                GetM    M_m>M_m    [0x400, line 0x400] 
            120   0  Directory                GetM    M_m>M_m    [0x400, line 0x400] 
            120   0  Directory                GetM    M_m>M_m    [0x400, line 0x400] 
            120   0  Directory                GetM    M_m>M_m    [0x400, line 0x400] 
            120   0  Directory                GetM    M_m>M_m    [0x400, line 0x400] 
            120   0  Directory                GetM    M_m>M_m    [0x400, line 0x400] 
            120   0  Directory                GetM    M_m>M_m    [0x400, line 0x400] 
            120   0  Directory                GetM    M_m>M_m    [0x400, line 0x400] 
            120   0  Directory                GetM    M_m>M_m    [0x400, line 0x400] 
            120   0  Directory                GetM    M_m>M_m    [0x400, line 0x400] 
            120   0  Directory                GetM    M_m>M_m    [0x400, line 0x400] 
            120   0  Directory                GetM    M_m>M_m    [0x400, line 0x400] 
            121   0  Directory                GetM    M_m>M_m    [0x400, line 0x400] 
            121   0  Directory                GetM    M_m>M_m    [0x400, line 0x400] 
            121   0  Directory                GetM    M_m>M_m    [0x400, line 0x400] 
            121   0  Directory                GetM    M_m>M_m    [0x400, line 0x400] 
            121   0  Directory                GetM    M_m>M_m    [0x400, line 0x400] 
            121   0  Directory                GetM    M_m>M_m    [0x400, line 0x400] 
            121   0  Directory                GetM    M_m>M_m    [0x400, line 0x400] 
            121   0  Directory                GetM    M_m>M_m    [0x400, line 0x400] 
            121   0  Directory                GetM    M_m>M_m    [0x400, line 0x400] 
            121   0  Directory                GetM    M_m>M_m    [0x400, line 0x400] 
            121   0  Directory                GetM    M_m>M_m    [0x400, line 0x400] 
            121   0  Directory                GetM    M_m>M_m    [0x400, line 0x400] 
            121   0  Directory                GetM    M_m>M_m    [0x400, line 0x400] 
            121   0  Directory                GetM    M_m>M_m    [0x400, line 0x400] 
            121   0  Directory                GetM    M_m>M_m    [0x400, line 0x400] 
            121   0  Directory                GetM    M_m>M_m    [0x400, line 0x400] 
            121   0  Directory                GetM    M_m>M_m    [0x400, line 0x400] 
            121   0  Directory                GetM    M_m>M_m    [0x400, line 0x400] 
            121   0  Directory                GetM    M_m>M_m    [0x400, line 0x400] 
            121   0  Directory                GetM    M_m>M_m    [0x400, line 0x400] 
            121   0  Directory                GetM    M_m>M_m    [0x400, line 0x400] 
            121   0  Directory                GetM    M_m>M_m    [0x400, line 0x400] 
            121   0  Directory                GetM    M_m>M_m    [0x400, line 0x400] 
            121   0  Directory                GetM    M_m>M_m    [0x400, line 0x400] 
            121   0  Directory                GetM    M_m>M_m    [0x400, line 0x400] 
            121   0  Directory                GetM    M_m>M_m    [0x400, line 0x400] 
            121   0  Directory                GetM    M_m>M_m    [0x400, line 0x400] 
            121   0  Directory                GetM    M_m>M_m    [0x400, line 0x400] 
            121   0  Directory                GetM    M_m>M_m    [0x400, line 0x400] 
            121   0  Directory                GetM    M_m>M_m    [0x400, line 0x400] 
            121   0  Directory                GetM    M_m>M_m    [0x400, line 0x400] 
            121   0  Directory                GetM    M_m>M_m    [0x400, line 0x400] 
            121   0        Seq               Begin       >       [0x24e8, line 0x24c0] ST
            122   0    L1Cache               Store      I>IM_S   [0x24c0, line 0x24c0] 
            122   0  Directory                GetM    M_m>M_m    [0x400, line 0x400] 
            122   0  Directory                GetM    M_m>M_m    [0x400, line 0x400] 
            122   0  Directory                GetM    M_m>M_m    [0x400, line 0x400] 
            122   0  Directory                GetM    M_m>M_m    [0x400, line 0x400] 
            122   0  Directory                GetM    M_m>M_m    [0x400, line 0x400] 
            122   0  Directory                GetM    M_m>M_m    [0x400, line 0x400] 
            122   0  Directory                GetM    M_m>M_m    [0x400, line 0x400] 
            122   0  Directory                GetM    M_m>M_m    [0x400, line 0x400] 
            122   0  Directory                GetM    M_m>M_m    [0x400, line 0x400] 
            122   0  Directory                GetM    M_m>M_m    [0x400, line 0x400] 
            122   0  Directory                GetM    M_m>M_m    [0x400, line 0x400] 
            122   0  Directory                GetM    M_m>M_m    [0x400, line 0x400] 
            122   0  Directory                GetM    M_m>M_m    [0x400, line 0x400] 
            122   0  Directory                GetM    M_m>M_m    [0x400, line 0x400] 
            122   0  Directory                GetM    M_m>M_m    [0x400, line 0x400] 
            122   0  Directory                GetM    M_m>M_m    [0x400, line 0x400] 
            122   0  Directory                GetM    M_m>M_m    [0x400, line 0x400] 
            122   0  Directory                GetM    M_m>M_m    [0x400, line 0x400] 
            122   0  Directory                GetM    M_m>M_m    [0x400, line 0x400] 
            122   0  Directory                GetM    M_m>M_m    [0x400, line 0x400] 
            122   0  Directory                GetM    M_m>M_m    [0x400, line 0x400] 
            122   0  Directory                GetM    M_m>M_m    [0x400, line 0x400] 
            122   0  Directory                GetM    M_m>M_m    [0x400, line 0x400] 
            122   0  Directory                GetM    M_m>M_m    [0x400, line 0x400] 
            122   0  Directory                GetM    M_m>M_m    [0x400, line 0x400] 
            122   0  Directory                GetM    M_m>M_m    [0x400, line 0x400] 
            122   0  Directory                GetM    M_m>M_m    [0x400, line 0x400] 
            122   0  Directory                GetM    M_m>M_m    [0x400, line 0x400] 
            122   0  Directory                GetM    M_m>M_m    [0x400, line 0x400] 
            122   0  Directory                GetM    M_m>M_m    [0x400, line 0x400] 
            122   0  Directory                GetM    M_m>M_m    [0x400, line 0x400] 
            122   0  Directory                GetM    M_m>M_m    [0x400, line 0x400] 
            123   0  Directory                GetM    M_m>M_m    [0x400, line 0x400] 
            123   0  Directory                GetM    M_m>M_m    [0x400, line 0x400] 
            123   0  Directory                GetM    M_m>M_m    [0x400, line 0x400] 
            123   0  Directory                GetM    M_m>M_m    [0x400, line 0x400] 
            123   0  Directory                GetM    M_m>M_m    [0x400, line 0x400] 
            123   0  Directory                GetM    M_m>M_m    [0x400, line 0x400] 
            123   0  Directory                GetM    M_m>M_m    [0x400, line 0x400] 
            123   0  Directory                GetM    M_m>M_m    [0x400, line 0x400] 
            123   0  Directory                GetM    M_m>M_m    [0x400, line 0x400] 
            123   0  Directory                GetM    M_m>M_m    [0x400, line 0x400] 
            123   0  Directory                GetM    M_m>M_m    [0x400, line 0x400] 
            123   0  Directory                GetM    M_m>M_m    [0x400, line 0x400] 
            123   0  Directory                GetM    M_m>M_m    [0x400, line 0x400] 
            123   0  Directory                GetM    M_m>M_m    [0x400, line 0x400] 
            123   0  Directory                GetM    M_m>M_m    [0x400, line 0x400] 
            123   0  Directory                GetM    M_m>M_m    [0x400, line 0x400] 
            123   0  Directory                GetM    M_m>M_m    [0x400, line 0x400] 
            123   0  Directory                GetM    M_m>M_m    [0x400, line 0x400] 
            123   0  Directory                GetM    M_m>M_m    [0x400, line 0x400] 
            123   0  Directory                GetM    M_m>M_m    [0x400, line 0x400] 
            123   0  Directory                GetM    M_m>M_m    [0x400, line 0x400] 
            123   0  Directory                GetM    M_m>M_m    [0x400, line 0x400] 
            123   0  Directory                GetM    M_m>M_m    [0x400, line 0x400] 
            123   0  Directory                GetM    M_m>M_m    [0x400, line 0x400] 
            123   0  Directory                GetM    M_m>M_m    [0x400, line 0x400] 
            123   0  Directory                GetM    M_m>M_m    [0x400, line 0x400] 
            123   0  Directory                GetM    M_m>M_m    [0x400, line 0x400] 
            123   0  Directory                GetM    M_m>M_m    [0x400, line 0x400] 
            123   0  Directory                GetM    M_m>M_m    [0x400, line 0x400] 
            123   0  Directory                GetM    M_m>M_m    [0x400, line 0x400] 
            123   0  Directory                GetM    M_m>M_m    [0x400, line 0x400] 
            123   0  Directory                GetM    M_m>M_m    [0x400, line 0x400] 
            124   0  Directory                GetM    M_m>M_m    [0x400, line 0x400] 
            124   0  Directory                GetM    M_m>M_m    [0x400, line 0x400] 
            124   0  Directory                GetM    M_m>M_m    [0x400, line 0x400] 
            124   0  Directory                GetM    M_m>M_m    [0x400, line 0x400] 
            124   0  Directory                GetM    M_m>M_m    [0x400, line 0x400] 
            124   0  Directory                GetM    M_m>M_m    [0x400, line 0x400] 
            124   0  Directory                GetM    M_m>M_m    [0x400, line 0x400] 
            124   0  Directory                GetM    M_m>M_m    [0x400, line 0x400] 
[...]
           9472   0        Seq                Done       >       [0x18eb, line 0x18c0] 0 cycles
           9472   0    L1Cache               Store      M>M      [0x18c0, line 0x18c0] 
           9472   1    L1Cache             FwdGetM      M>I      [0x52c0, line 0x52c0] 
           9477   0        Seq                Done       >       [0x52ef, line 0x52c0] 0 cycles
           9477   0    L1Cache           DataOwner   IM_S>M      [0x52c0, line 0x52c0] 
           9481   1        Seq               Begin       >       [0x35ed, line 0x35c0] ST
           9482   1        Seq                Done       >       [0x35ed, line 0x35c0] 0 cycles
           9482   1    L1Cache               Store      M>M      [0x35c0, line 0x35c0] 
           9491   0        Seq               Begin       >       [0x23ee, line 0x23c0] ST
           9492   0        Seq                Done       >       [0x23ee, line 0x23c0] 0 cycles
           9492   0    L1Cache               Store      M>M      [0x23c0, line 0x23c0] 
           9499   0  Directory             MemData    M_m>M      [0x47c0, line 0x47c0] 
           9501   0        Seq               Begin       >       [0x4cef, line 0x4cc0] ST
           9502   0        Seq                Done       >       [0x4cef, line 0x4cc0] 0 cycles
           9502   0    L1Cache               Store      M>M      [0x4cc0, line 0x4cc0] 
           9504   0        Seq                Done       >       [0x47e8, line 0x47c0] 0 cycles
           9504   0    L1Cache             DataDir   IM_L>M      [0x47c0, line 0x47c0] 
           9511   0        Seq               Begin       >       [0x30ec, line 0x30c0] IFETCH
           9512   0    L1Cache                Load      I>IM_L   [0x30c0, line 0x30c0] 
           9517   0  Directory                GetM      M>M      [0x30c0, line 0x30c0] 
           9521   1        Seq               Begin       >       [0x2aea, line 0x2ac0] ST
           9522   1    L1Cache             FwdGetM      M>I      [0x30c0, line 0x30c0] 
           9522   1        Seq                Done       >       [0x2aea, line 0x2ac0] 0 cycles
           9522   1    L1Cache               Store      M>M      [0x2ac0, line 0x2ac0] 
           9527   0        Seq                Done       >       [0x30ec, line 0x30c0] 0 cycles
           9527   0    L1Cache           DataOwner   IM_L>M      [0x30c0, line 0x30c0] 
           9531   0        Seq               Begin       >       [0x13ed, line 0x13c0] ST
           9532   0        Seq                Done       >       [0x13ed, line 0x13c0] 0 cycles
           9532   0    L1Cache               Store      M>M      [0x13c0, line 0x13c0] 
           9541   1        Seq               Begin       >       [0x410, line 0x400] IFETCH
           9542   1    L1Cache                Load      I>IM_L   [0x400, line 0x400] 
           9547   0  Directory                GetM      M>M      [0x400, line 0x400] 
           9551   1        Seq               Begin       >       [0x18e8, line 0x18c0] LD
           9552   1    L1Cache                Load      I>IM_L   [0x18c0, line 0x18c0] 
           9552   0    L1Cache             FwdGetM      M>I      [0x400, line 0x400] 
           9557   1        Seq                Done       >       [0x410, line 0x400] 0 cycles
           9557   1    L1Cache           DataOwner   IM_L>M      [0x400, line 0x400] 
           9557   0  Directory                GetM      M>M      [0x18c0, line 0x18c0] 
           9561   1        Seq               Begin       >       [0x405, line 0x400] ST
           9562   1        Seq                Done       >       [0x405, line 0x400] 0 cycles
           9562   1    L1Cache               Store      M>M      [0x400, line 0x400] 
           9562   0    L1Cache             FwdGetM      M>I      [0x18c0, line 0x18c0] 
           9567   1        Seq                Done       >       [0x18e8, line 0x18c0] 0 cycles
           9567   1    L1Cache           DataOwner   IM_L>M      [0x18c0, line 0x18c0] 
           9571   0        Seq               Begin       >       [0x7ef, line 0x7c0] ST
           9572   0        Seq                Done       >       [0x7ef, line 0x7c0] 0 cycles
           9572   0    L1Cache               Store      M>M      [0x7c0, line 0x7c0] 
           9581   0        Seq               Begin       >       [0x13eb, line 0x13c0] ST
           9582   0        Seq                Done       >       [0x13eb, line 0x13c0] 0 cycles
           9582   0    L1Cache               Store      M>M      [0x13c0, line 0x13c0] 
           9591   1        Seq               Begin       >       [0x422, line 0x400] ST
           9592   1        Seq                Done       >       [0x422, line 0x400] 0 cycles
           9592   1    L1Cache               Store      M>M      [0x400, line 0x400] 
           9601   0        Seq               Begin       >       [0x61eb, line 0x61c0] ST
           9602   0        Seq                Done       >       [0x61eb, line 0x61c0] 0 cycles
           9602   0    L1Cache               Store      M>M      [0x61c0, line 0x61c0] 
           9611   0        Seq               Begin       >       [0x46eb, line 0x46c0] ST
           9612   0    L1Cache               Store      I>IM_S   [0x46c0, line 0x46c0] 
           9617   0  Directory                GetM      I>M_m    [0x46c0, line 0x46c0] 
           9621   1        Seq               Begin       >       [0x40e, line 0x400] ST
           9622   1        Seq                Done       >       [0x40e, line 0x400] 0 cycles
           9622   1    L1Cache               Store      M>M      [0x400, line 0x400] 
           9631   1        Seq               Begin       >       [0x23ef, line 0x23c0] ST
           9632   1    L1Cache               Store      I>IM_S   [0x23c0, line 0x23c0] 
           9637   0  Directory                GetM      M>M      [0x23c0, line 0x23c0] 
           9641   1        Seq               Begin       >       [0x38e8, line 0x38c0] IFETCH
           9642   1        Seq                Done       >       [0x38e8, line 0x38c0] 0 cycles
           9642   1    L1Cache                Load      M>M      [0x38c0, line 0x38c0] 
           9642   0    L1Cache             FwdGetM      M>I      [0x23c0, line 0x23c0] 
           9647   1        Seq                Done       >       [0x23ef, line 0x23c0] 0 cycles
           9647   1    L1Cache           DataOwner   IM_S>M      [0x23c0, line 0x23c0] 
           9651   1        Seq               Begin       >       [0x19ec, line 0x19c0] IFETCH
           9652   1    L1Cache                Load      I>IM_L   [0x19c0, line 0x19c0] 
           9657   0  Directory                GetM      M>M      [0x19c0, line 0x19c0] 
           9661   1        Seq               Begin       >       [0x3de9, line 0x3dc0] ST
           9662   1    L1Cache               Store      I>IM_S   [0x3dc0, line 0x3dc0] 
           9662   0    L1Cache             FwdGetM      M>I      [0x19c0, line 0x19c0] 
           9667   1        Seq                Done       >       [0x19ec, line 0x19c0] 0 cycles
           9667   1    L1Cache           DataOwner   IM_L>M      [0x19c0, line 0x19c0] 
           9667   0  Directory                GetM      M>M      [0x3dc0, line 0x3dc0] 
           9669   0  Directory             MemData    M_m>M      [0x46c0, line 0x46c0] 
           9671   0        Seq               Begin       >       [0x42c, line 0x400] IFETCH
           9672   0    L1Cache             FwdGetM      M>I      [0x3dc0, line 0x3dc0] 
           9672   0    L1Cache                Load      I>IM_L   [0x400, line 0x400] 
           9674   0        Seq                Done       >       [0x46eb, line 0x46c0] 0 cycles
           9674   0    L1Cache             DataDir   IM_S>M      [0x46c0, line 0x46c0] 
           9677   1        Seq                Done       >       [0x3de9, line 0x3dc0] 0 cycles
           9677   1    L1Cache           DataOwner   IM_S>M      [0x3dc0, line 0x3dc0] 
           9677   0  Directory                GetM      M>M      [0x400, line 0x400] 
           9681   1        Seq               Begin       >       [0x1fed, line 0x1fc0] ST
           9682   1    L1Cache             FwdGetM      M>I      [0x400, line 0x400] 
           9682   1        Seq                Done       >       [0x1fed, line 0x1fc0] 0 cycles
           9682   1    L1Cache               Store      M>M      [0x1fc0, line 0x1fc0] 
           9687   0        Seq                Done       >       [0x42c, line 0x400] 0 cycles
           9687   0    L1Cache           DataOwner   IM_L>M      [0x400, line 0x400] 
           9691   1        Seq               Begin       >       [0x55ee, line 0x55c0] ST
           9692   1        Seq                Done       >       [0x55ee, line 0x55c0] 0 cycles
           9692   1    L1Cache               Store      M>M      [0x55c0, line 0x55c0] 
           9701   1        Seq               Begin       >       [0x25e9, line 0x25c0] ST
           9702   1        Seq                Done       >       [0x25e9, line 0x25c0] 0 cycles
           9702   1    L1Cache               Store      M>M      [0x25c0, line 0x25c0] 
           9711   1        Seq               Begin       >       [0x3aee, line 0x3ac0] ST
           9712   1        Seq                Done       >       [0x3aee, line 0x3ac0] 0 cycles
           9712   1    L1Cache               Store      M>M      [0x3ac0, line 0x3ac0] 
           9721   1        Seq               Begin       >       [0x2eee, line 0x2ec0] ST
           9722   1        Seq                Done       >       [0x2eee, line 0x2ec0] 0 cycles
           9722   1    L1Cache               Store      M>M      [0x2ec0, line 0x2ec0] 
           9731   0        Seq               Begin       >       [0x49ee, line 0x49c0] ST
           9732   0        Seq                Done       >       [0x49ee, line 0x49c0] 0 cycles
           9732   0    L1Cache               Store      M>M      [0x49c0, line 0x49c0] 
           9741   1        Seq               Begin       >       [0x4dee, line 0x4dc0] ST
           9742   1        Seq                Done       >       [0x4dee, line 0x4dc0] 0 cycles
           9742   1    L1Cache               Store      M>M      [0x4dc0, line 0x4dc0] 
           9751   1        Seq               Begin       >       [0x45ec, line 0x45c0] ST
           9752   1    L1Cache               Store      I>IM_S   [0x45c0, line 0x45c0] 
           9757   0  Directory                GetM      M>M      [0x45c0, line 0x45c0] 
           9761   0        Seq               Begin       >       [0x66ea, line 0x66c0] ST
           9762   0    L1Cache             FwdGetM      M>I      [0x45c0, line 0x45c0] 
           9762   0        Seq                Done       >       [0x66ea, line 0x66c0] 0 cycles
           9762   0    L1Cache               Store      M>M      [0x66c0, line 0x66c0] 
           9767   1        Seq                Done       >       [0x45ec, line 0x45c0] 0 cycles
           9767   1    L1Cache           DataOwner   IM_S>M      [0x45c0, line 0x45c0] 
           9771   0        Seq               Begin       >       [0x4cea, line 0x4cc0] ST
           9772   0        Seq                Done       >       [0x4cea, line 0x4cc0] 0 cycles
           9772   0    L1Cache               Store      M>M      [0x4cc0, line 0x4cc0] 
           9781   1        Seq               Begin       >       [0x3ff, line 0x3c0] ST
           9782   1    L1Cache               Store      I>IM_S   [0x3c0, line 0x3c0] 
           9787   0  Directory                GetM      M>M      [0x3c0, line 0x3c0] 
           9791   1        Seq               Begin       >       [0x39e9, line 0x39c0] ST
           9792   1    L1Cache               Store      I>IM_S   [0x39c0, line 0x39c0] 
           9792   0    L1Cache             FwdGetM      M>I      [0x3c0, line 0x3c0] 
           9797   1        Seq                Done       >       [0x3ff, line 0x3c0] 0 cycles
           9797   1    L1Cache           DataOwner   IM_S>M      [0x3c0, line 0x3c0] 
           9797   0  Directory                GetM      M>M      [0x39c0, line 0x39c0] 
           9801   1        Seq               Begin       >       [0x44a, line 0x440] ST
           9802   1    L1Cache               Store      I>IM_S   [0x440, line 0x440] 
           9802   0    L1Cache             FwdGetM      M>I      [0x39c0, line 0x39c0] 
           9807   1        Seq                Done       >       [0x39e9, line 0x39c0] 0 cycles
           9807   1    L1Cache           DataOwner   IM_S>M      [0x39c0, line 0x39c0] 
           9807   0  Directory                GetM      M>M      [0x440, line 0x440] 
           9811   1        Seq               Begin       >       [0x50ef, line 0x50c0] ST
           9812   1        Seq                Done       >       [0x50ef, line 0x50c0] 0 cycles
           9812   1    L1Cache               Store      M>M      [0x50c0, line 0x50c0] 
           9812   0    L1Cache             FwdGetM      M>I      [0x440, line 0x440] 
           9817   1        Seq                Done       >       [0x44a, line 0x440] 0 cycles
           9817   1    L1Cache           DataOwner   IM_S>M      [0x440, line 0x440] 
           9821   0        Seq               Begin       >       [0x3ea, line 0x3c0] ST
           9822   0    L1Cache               Store      I>IM_S   [0x3c0, line 0x3c0] 
           9827   0  Directory                GetM      M>M      [0x3c0, line 0x3c0] 
           9831   1        Seq               Begin       >       [0x19e8, line 0x19c0] ST
           9832   1    L1Cache             FwdGetM      M>I      [0x3c0, line 0x3c0] 
           9832   1        Seq                Done       >       [0x19e8, line 0x19c0] 0 cycles
           9832   1    L1Cache               Store      M>M      [0x19c0, line 0x19c0] 
           9837   0        Seq                Done       >       [0x3ea, line 0x3c0] 0 cycles
           9837   0    L1Cache           DataOwner   IM_S>M      [0x3c0, line 0x3c0] 
           9841   1        Seq               Begin       >       [0x15e8, line 0x15c0] IFETCH
           9842   1    L1Cache                Load      I>IM_L   [0x15c0, line 0x15c0] 
           9847   0  Directory                GetM      M>M      [0x15c0, line 0x15c0] 
           9851   1        Seq               Begin       >       [0x5dee, line 0x5dc0] ST
           9852   1        Seq                Done       >       [0x5dee, line 0x5dc0] 0 cycles
           9852   1    L1Cache               Store      M>M      [0x5dc0, line 0x5dc0] 
           9852   0    L1Cache             FwdGetM      M>I      [0x15c0, line 0x15c0] 
           9857   1        Seq                Done       >       [0x15e8, line 0x15c0] 0 cycles
           9857   1    L1Cache           DataOwner   IM_L>M      [0x15c0, line 0x15c0] 
           9861   0        Seq               Begin       >       [0x2beb, line 0x2bc0] ST
           9862   0    L1Cache               Store      I>IM_S   [0x2bc0, line 0x2bc0] 
           9867   0  Directory                GetM      M>M      [0x2bc0, line 0x2bc0] 
           9871   0        Seq               Begin       >       [0x4eed, line 0x4ec0] ST
           9872   0    L1Cache               Store      I>IM_S   [0x4ec0, line 0x4ec0] 
           9872   1    L1Cache             FwdGetM      M>I      [0x2bc0, line 0x2bc0] 
           9877   0        Seq                Done       >       [0x2beb, line 0x2bc0] 0 cycles
           9877   0    L1Cache           DataOwner   IM_S>M      [0x2bc0, line 0x2bc0] 
           9877   0  Directory                GetM      M>M      [0x4ec0, line 0x4ec0] 
           9881   1        Seq               Begin       >       [0x4ceb, line 0x4cc0] ST
           9882   1    L1Cache             FwdGetM      M>I      [0x4ec0, line 0x4ec0] 
           9882   1    L1Cache               Store      I>IM_S   [0x4cc0, line 0x4cc0] 
           9887   0        Seq                Done       >       [0x4eed, line 0x4ec0] 0 cycles
           9887   0    L1Cache           DataOwner   IM_S>M      [0x4ec0, line 0x4ec0] 
           9887   0  Directory                GetM      M>M      [0x4cc0, line 0x4cc0] 
           9891   0        Seq               Begin       >       [0x5ee, line 0x5c0] ST
           9892   0    L1Cache             FwdGetM      M>I      [0x4cc0, line 0x4cc0] 
           9892   0        Seq                Done       >       [0x5ee, line 0x5c0] 0 cycles
           9892   0    L1Cache               Store      M>M      [0x5c0, line 0x5c0] 
           9897   1        Seq                Done       >       [0x4ceb, line 0x4cc0] 0 cycles
           9897   1    L1Cache           DataOwner   IM_S>M      [0x4cc0, line 0x4cc0] 
           9901   1        Seq               Begin       >       [0x44ea, line 0x44c0] ST
           9902   1        Seq                Done       >       [0x44ea, line 0x44c0] 0 cycles
           9902   1    L1Cache               Store      M>M      [0x44c0, line 0x44c0] 
           9911   1        Seq               Begin       >       [0x8eb, line 0x8c0] ST
           9912   1        Seq                Done       >       [0x8eb, line 0x8c0] 0 cycles
           9912   1    L1Cache               Store      M>M      [0x8c0, line 0x8c0] 
           9921   1        Seq               Begin       >       [0x3cef, line 0x3cc0] ST
           9922   1        Seq                Done       >       [0x3cef, line 0x3cc0] 0 cycles
           9922   1    L1Cache               Store      M>M      [0x3cc0, line 0x3cc0] 
           9931   1        Seq               Begin       >       [0x42a, line 0x400] ST
           9932   1    L1Cache               Store      I>IM_S   [0x400, line 0x400] 
           9937   0  Directory                GetM      M>M      [0x400, line 0x400] 
           9941   1        Seq               Begin       >       [0x3eeb, line 0x3ec0] ST
           9942   1    L1Cache               Store      I>IM_S   [0x3ec0, line 0x3ec0] 
           9942   0    L1Cache             FwdGetM      M>I      [0x400, line 0x400] 
           9947   1        Seq                Done       >       [0x42a, line 0x400] 0 cycles
           9947   1    L1Cache           DataOwner   IM_S>M      [0x400, line 0x400] 
           9947   0  Directory                GetM      M>M      [0x3ec0, line 0x3ec0] 
           9951   0        Seq               Begin       >       [0x4ee, line 0x4c0] ST
           9952   0    L1Cache             FwdGetM      M>I      [0x3ec0, line 0x3ec0] 
           9952   0        Seq                Done       >       [0x4ee, line 0x4c0] 0 cycles
           9952   0    L1Cache               Store      M>M      [0x4c0, line 0x4c0] 
           9957   1        Seq                Done       >       [0x3eeb, line 0x3ec0] 0 cycles
           9957   1    L1Cache           DataOwner   IM_S>M      [0x3ec0, line 0x3ec0] 
           9961   0        Seq               Begin       >       [0x48e8, line 0x48c0] LD
           9962   0        Seq                Done       >       [0x48e8, line 0x48c0] 0 cycles
           9962   0    L1Cache                Load      M>M      [0x48c0, line 0x48c0] 
           9971   0        Seq               Begin       >       [0x8e8, line 0x8c0] LD
           9972   0    L1Cache                Load      I>IM_L   [0x8c0, line 0x8c0] 
           9977   0  Directory                GetM      M>M      [0x8c0, line 0x8c0] 
           9981   1        Seq               Begin       >       [0x10ee, line 0x10c0] ST
           9982   1    L1Cache             FwdGetM      M>I      [0x8c0, line 0x8c0] 
           9982   1        Seq                Done       >       [0x10ee, line 0x10c0] 0 cycles
           9982   1    L1Cache               Store      M>M      [0x10c0, line 0x10c0] 
           9987   0        Seq                Done       >       [0x8e8, line 0x8c0] 0 cycles
           9987   0    L1Cache           DataOwner   IM_L>M      [0x8c0, line 0x8c0] 
Exiting @ tick 9991 because Ruby Tester completed
