Global frequency set at 1000000000000 ticks per second
gem5 Simulator System.  http://gem5.org
gem5 is copyrighted software; use the --copyright option for details.

gem5 version 20.1.0.4
gem5 compiled Apr 22 2021 11:55:25
gem5 started Apr 22 2021 12:03:10
gem5 executing on DESKTOP-V8CGH3I, pid 24675
command line: /home/ppetrica/Workspace/gem5/build/X86_MI/gem5.opt /home/ppetrica/Workspace/gem5/configs/learning_gem5/part3/bench.py --bench parser-125k --ncpus 4

info: Standard input is not a terminal, disabling listeners.
Beginning simulation!
-  Info: Starting Run...
-- Workload:parser-125k=780641437
-- parser-125k:time(ns)=1895
-- parser-125k:contexts=4
-- parser-125k:iterations=4
-- parser-125k:time(secs)=   1.895
-- parser-125k:secs/workload= 0.47375
-- parser-125k:workloads/sec= 2.11082
-- Done:parser-125k=780641437
Exiting @ tick 2551607612000 because exiting with last active thread context
Exiting @ tick 2551607612000 because exiting with last active thread context
