Global frequency set at 1000000000000 ticks per second
gem5 Simulator System.  http://gem5.org
gem5 is copyrighted software; use the --copyright option for details.

gem5 version 20.1.0.4
gem5 compiled Apr 21 2021 23:18:09
gem5 started Apr 21 2021 23:19:08
gem5 executing on DESKTOP-V8CGH3I, pid 15058
command line: /home/ppetrica/Workspace/gem5/build/X86_MOESI/gem5.opt /home/ppetrica/Workspace/gem5/configs/learning_gem5/part3/bench.py --bench nnet_test --ncpus 4

info: Standard input is not a terminal, disabling listeners.
Beginning simulation!
-  Info: Starting Run...
-- Workload:nnet_test=549578576
-- nnet_test:time(ns)=16486
-- nnet_test:contexts=4
-- nnet_test:iterations=10
-- nnet_test:time(secs)=  16.486
-- nnet_test:secs/workload=  1.6486
-- nnet_test:workloads/sec=0.606575
-- Done:nnet_test=549578576
Exiting @ tick 16487543232000 because exiting with last active thread context
Exiting @ tick 16487543232000 because exiting with last active thread context
