Global frequency set at 1000000000000 ticks per second
gem5 Simulator System.  http://gem5.org
gem5 is copyrighted software; use the --copyright option for details.

gem5 version 20.1.0.4
gem5 compiled Apr 21 2021 23:18:09
gem5 started Apr 21 2021 23:42:33
gem5 executing on DESKTOP-V8CGH3I, pid 15818
command line: /home/ppetrica/Workspace/gem5/build/X86_MOESI/gem5.opt /home/ppetrica/Workspace/gem5/configs/learning_gem5/part3/bench.py --bench cjpeg-rose7-preset --ncpus 4

Beginning simulation!
Rose256.bmp data supplied by C array
>> Data Set                 : Rose256.bmp
>> Output File              : Rose256.jpg
Rose256.bmp data supplied by C array
>> Data Set                 : Rose256.bmp
>> Output File              : Rose256.jpg
Rose256.bmp data supplied by C array
>> Data Set                 : Rose256.bmp
>> Output File              : Rose256.jpg
Rose256.bmp data supplied by C array
>> Data Set                 : Rose256.bmp
>> Output File              : Rose256.jpg
Rose256.bmp data supplied by C array
>> Data Set                 : Rose256.bmp
>> Output File              : Rose256.jpg
Rose256.bmp data supplied by C array
>> Data Set                 : Rose256.bmp
>> Output File              : Rose256.jpg
Rose256.bmp data supplied by C array
>> Data Set                 : Rose256.bmp
>> Output File              : Rose256.jpg
-  Info: Starting Run...
