Global frequency set at 1000000000000 ticks per second
gem5 Simulator System.  http://gem5.org
gem5 is copyrighted software; use the --copyright option for details.

gem5 version 20.1.0.4
gem5 compiled Apr 23 2021 14:46:22
gem5 started Apr 23 2021 21:23:46
gem5 executing on DESKTOP-V8CGH3I, pid 31790
command line: /home/ppetrica/Workspace/gem5/build/X86_MESI/gem5.opt /home/ppetrica/Workspace/gem5/configs/learning_gem5/part3/bench.py --bench nnet_test --ncpus 4

Beginning simulation!
-  Info: Starting Run...
