Global frequency set at 1000000000000 ticks per second
gem5 Simulator System.  http://gem5.org
gem5 is copyrighted software; use the --copyright option for details.

gem5 version 20.1.0.4
gem5 compiled Apr 23 2021 21:19:50
gem5 started Apr 23 2021 21:20:55
gem5 executing on DESKTOP-V8CGH3I, pid 31319
command line: /home/ppetrica/Workspace/gem5/build/X86_MOSI/gem5.opt /home/ppetrica/Workspace/gem5/configs/learning_gem5/part3/bench.py --bench core --ncpus 4

info: Standard input is not a terminal, disabling listeners.
Beginning simulation!
Hello world!
-  Info: Starting Run...
-- Workload:core=490760323
-- core:time(ns)=29377
-- core:contexts=4
-- core:iterations=4
-- core:time(secs)=  29.377
-- core:secs/workload= 7.34425
-- core:workloads/sec=0.136161
-- Done:core=490760323
Exiting @ tick 29377251164000 because exiting with last active thread context
Exiting @ tick 29377251164000 because exiting with last active thread context
