Global frequency set at 1000000000000 ticks per second
gem5 Simulator System.  http://gem5.org
gem5 is copyrighted software; use the --copyright option for details.

gem5 version 20.1.0.4
gem5 compiled Apr 21 2021 23:18:09
gem5 started Apr 21 2021 23:19:08
gem5 executing on DESKTOP-V8CGH3I, pid 15048
command line: /home/ppetrica/Workspace/gem5/build/X86_MOESI/gem5.opt /home/ppetrica/Workspace/gem5/configs/learning_gem5/part3/bench.py --bench linear_alg-mid-100x100-sp --ncpus 4

info: Standard input is not a terminal, disabling listeners.
Beginning simulation!
-  Info: Starting Run...
-- Workload:linear_alg-mid-100x100-sp=1046644201
-- linear_alg-mid-100x100-sp:time(ns)=4169
-- linear_alg-mid-100x100-sp:contexts=4
-- linear_alg-mid-100x100-sp:iterations=50
-- linear_alg-mid-100x100-sp:time(secs)=   4.169
-- linear_alg-mid-100x100-sp:secs/workload= 0.08338
-- linear_alg-mid-100x100-sp:workloads/sec= 11.9933
-- Done:linear_alg-mid-100x100-sp=1046644201
Exiting @ tick 4183925041000 because exiting with last active thread context
Exiting @ tick 4183925041000 because exiting with last active thread context
