Global frequency set at 1000000000000 ticks per second
gem5 Simulator System.  http://gem5.org
gem5 is copyrighted software; use the --copyright option for details.

gem5 version 20.1.0.4
gem5 compiled Apr 23 2021 21:19:50
gem5 started Apr 23 2021 21:20:55
gem5 executing on DESKTOP-V8CGH3I, pid 31329
command line: /home/ppetrica/Workspace/gem5/build/X86_MOSI/gem5.opt /home/ppetrica/Workspace/gem5/configs/learning_gem5/part3/bench.py --bench linear_alg-mid-100x100-sp --ncpus 4

info: Standard input is not a terminal, disabling listeners.
Beginning simulation!
-  Info: Starting Run...
-- Workload:linear_alg-mid-100x100-sp=1046644201
-- linear_alg-mid-100x100-sp:time(ns)=4549
-- linear_alg-mid-100x100-sp:contexts=4
-- linear_alg-mid-100x100-sp:iterations=50
-- linear_alg-mid-100x100-sp:time(secs)=   4.549
-- linear_alg-mid-100x100-sp:secs/workload= 0.09098
-- linear_alg-mid-100x100-sp:workloads/sec= 10.9914
-- Done:linear_alg-mid-100x100-sp=1046644201
Exiting @ tick 4565444305000 because exiting with last active thread context
Exiting @ tick 4565444305000 because exiting with last active thread context
