Global frequency set at 1000000000000 ticks per second
gem5 Simulator System.  http://gem5.org
gem5 is copyrighted software; use the --copyright option for details.

gem5 version 20.1.0.4
gem5 compiled Apr 22 2021 11:55:25
gem5 started Apr 22 2021 12:03:10
gem5 executing on DESKTOP-V8CGH3I, pid 24645
command line: /home/ppetrica/Workspace/gem5/build/X86_MI/gem5.opt /home/ppetrica/Workspace/gem5/configs/learning_gem5/part3/bench.py --bench cjpeg-rose7-preset --ncpus 4

info: Standard input is not a terminal, disabling listeners.
Beginning simulation!
Rose256.bmp data supplied by C array
>> Data Set                 : Rose256.bmp
>> Output File              : Rose256.jpg
Rose256.bmp data supplied by C array
>> Data Set                 : Rose256.bmp
>> Output File              : Rose256.jpg
Rose256.bmp data supplied by C array
>> Data Set                 : Rose256.bmp
>> Output File              : Rose256.jpg
Rose256.bmp data supplied by C array
>> Data Set                 : Rose256.bmp
>> Output File              : Rose256.jpg
Rose256.bmp data supplied by C array
>> Data Set                 : Rose256.bmp
>> Output File              : Rose256.jpg
Rose256.bmp data supplied by C array
>> Data Set                 : Rose256.bmp
>> Output File              : Rose256.jpg
Rose256.bmp data supplied by C array
>> Data Set                 : Rose256.bmp
>> Output File              : Rose256.jpg
-  Info: Starting Run...
-- Workload:cjpeg-rose7-preset=236760500
-- cjpeg-rose7-preset:time(ns)=571
-- cjpeg-rose7-preset:contexts=4
-- cjpeg-rose7-preset:iterations=10
-- cjpeg-rose7-preset:time(secs)=   0.571
-- cjpeg-rose7-preset:secs/workload=  0.0571
-- cjpeg-rose7-preset:workloads/sec= 17.5131
-- Done:cjpeg-rose7-preset=236760500
Exiting @ tick 572143424000 because exiting with last active thread context
Exiting @ tick 572143424000 because exiting with last active thread context
